.. _autodoc_all:

.. vale off

All keyword class summaries
############################

This section contains auto-generated documentation for all LS-DYNA keyword classes, organized by category for faster parallel documentation builds.

.. toctree::
   :maxdepth: 1
   :caption: Keyword Categories

{% for category in categories %}
   {{ category }}
{% endfor %}

.. vale on
