$# LS-DYNA Keyword file created by LS-KwdReader(R) V1.0 (Beta) - 07May2020
$# Created on Sep-4-2023 (15:04:51)
*KEYWORD
*TITLE
$#                                                                         title
LS-DYNA keyword deck by LS-Prepost
*CONTROL_CONTACT
$#  slsfac    rwpnal    islchk    shlthk    penopt    thkchg     orien    enmass
       0.0       1.0         0         0         0         0         1         0
$#  usrstr    usrfrc     nsbcs    interm     xpene     ssthk      ecdt   tiedprj
         0         0         0         0       0.0         0         0         0
$#   sfric     dfric       edc       vfc        th     th_sf    pen_sf     ptscl
                                                                                
$#  ignore    frceng   skiprwg    outseg   spotstp   spotdel   spothin   dir_tie
         1                                                                      
$#    isym    nserod    rwgaps    rwgdth     rwksf      icov    swradf    ithoff
                                                                                
$#  shledg    pstiff    ithcnt    tdcnof     ftall    unused    shltrw    igactc
         0         0         0         0         0                 0.0         0
*CONTROL_TERMINATION
$#  endtim    endcyc     dtmin    endeng    endmas     nosol
      10.0         0       0.0       0.01.000000E8         0
*DATABASE_GLSTAT
$#      dt    binary      lcur     ioopt
       0.1         1         0         1
*DATABASE_MATSUM
$#      dt    binary      lcur     ioopt
       0.1         1         0         1
*DATABASE_SLEOUT
$#      dt    binary      lcur     ioopt
       0.1         1         0         1
*DATABASE_BINARY_D3PLOT
$#      dt      lcdt      beam     npltc    psetid
       1.0         0         0         0         0
*BOUNDARY_SPC_SET
$#    nsid       cid      dofx      dofy      dofz     dofrx     dofry     dofrz
         1         0         1         1         1         0         0         0
*SET_NODE_LIST
$#     sid       da1       da2       da3       da4    solver       its         -
         1                                        MECH                          
$#    nid1      nid2      nid3      nid4      nid5      nid6      nid7      nid8
        34        35        51        52        68        69        85        86
       102       103       119       120       136       137       153       154
       170       171       187       188       204       205       221       222
       238       239       255       256         1         2         3         4
         5         6         7         8         9        10        11        12
        13        14        15        16        17        18       272       273
       274       275       276       277       278       279       280       281
       282       283       284       285       286       287       288       289
*CONTACT_AUTOMATIC_SINGLE_SURFACE
$#     cid                                                                 title
$#   surfa     surfb  surfatyp  surfbtyp   saboxid   sbboxid      sapr      sbpr
         1         0         2         0         0         0         0         0
$#      fs        fd        dc        vc       vdc    penchk        bt        dt
       0.0       0.0       0.0       0.0       0.0         0       0.0       0.0
$#    sfsa      sfsb      sast      sbst     sfsat     sfsbt       fsf       vsf
       1.0       0.0       0.0       0.0       1.0       1.0       1.0       1.0
$#    soft    sofscl    lcidab    maxpar     sbopt     depth     bsort    frcfrq
         0       0.0         0       0.0         0         0         1         0
*SET_PART_LIST
$#     sid       da1       da2       da3       da4    solver
         1                                        MECH
$#    pid1      pid2      pid3      pid4      pid5      pid6      pid7      pid8
         1         2         0         0         0         0         0         0
*PART
$#                                                                         title
plate
$#     pid     secid       mid     eosid      hgid      grav    adpopt      tmid
         1         1         1                                                  
*SECTION_SHELL
$#   secid    elform      shrf       nip     propt   qr/irid     icomp     setyp
         1         2       1.0         5       1.0         0         0         1
$#      t1        t2        t3        t4      nloc     marea      idof    edgset
       1.0       1.0       1.0       1.0       0.0       0.0       0.0         0
*MAT_PIECEWISE_LINEAR_PLASTICITY
$#     mid        ro         e        pr      sigy      etan      fail      tdel
         17.83000E-6     207.0       0.3       0.2       2.0       0.0       0.0
$#       c         p      lcss      lcsr        vp
       0.0       0.0         0         0       0.0
$#    eps1      eps2      eps3      eps4      eps5      eps6      eps7      eps8
       0.0       0.0       0.0       0.0       0.0       0.0       0.0       0.0
$#     es1       es2       es3       es4       es5       es6       es7       es8
       0.0       0.0       0.0       0.0       0.0       0.0       0.0       0.0
*PART
$#                                                                         title
ball
$#     pid     secid       mid     eosid      hgid      grav    adpopt      tmid
         2         2         2                                                  
*SECTION_SOLID
$#   secid    elform       aet    unused    unused    unused    cohoff   gaskeit
         2         1         0                                     0.0       0.0
*MAT_RIGID
$#     mid        ro         e        pr         n    couple         m     alias
         27.83000E-6     207.0       0.3       0.0       0.0       0.0                    
$#     cmo      con1      con2
       0.0                    
$#lco or a1        a2        a3        v1        v2        v3
       0.0       0.0       0.0       0.0       0.0       0.0
*INITIAL_VELOCITY_NODE
$#     nid        vx        vy        vz       vxr       vyr       vzr      icid
         1       0.0       0.0     -10.0       0.0       0.0       0.0         0
         2       0.0       0.0     -10.0       0.0       0.0       0.0         0
         3       0.0       0.0     -10.0       0.0       0.0       0.0         0
         4       0.0       0.0     -10.0       0.0       0.0       0.0         0
         5       0.0       0.0     -10.0       0.0       0.0       0.0         0
         6       0.0       0.0     -10.0       0.0       0.0       0.0         0
         7       0.0       0.0     -10.0       0.0       0.0       0.0         0
         8       0.0       0.0     -10.0       0.0       0.0       0.0         0
         9       0.0       0.0     -10.0       0.0       0.0       0.0         0
        10       0.0       0.0     -10.0       0.0       0.0       0.0         0
        11       0.0       0.0     -10.0       0.0       0.0       0.0         0
        12       0.0       0.0     -10.0       0.0       0.0       0.0         0
        13       0.0       0.0     -10.0       0.0       0.0       0.0         0
        14       0.0       0.0     -10.0       0.0       0.0       0.0         0
        15       0.0       0.0     -10.0       0.0       0.0       0.0         0
        16       0.0       0.0     -10.0       0.0       0.0       0.0         0
        17       0.0       0.0     -10.0       0.0       0.0       0.0         0
        18       0.0       0.0     -10.0       0.0       0.0       0.0         0
        19       0.0       0.0     -10.0       0.0       0.0       0.0         0
        20       0.0       0.0     -10.0       0.0       0.0       0.0         0
$ ... 1631 like lines cut
*ELEMENT_SOLID
$#   eid     pid      n1      n2      n3      n4      n5      n6      n7      n8
     257       2     290     339     346     297     291     340     347     298
     258       2     291     340     347     298     292     341     348     299
     259       2     292     341     348     299     293     342     349     300
     260       2     293     342     349     300     294     343     350     301
     261       2     294     343     350     301     295     344     351     302
     262       2     295     344     351     302     296     345     352     303
     263       2     297     346     353     304     298     347     354     305
     264       2     298     347     354     305     299     348     355     306
     265       2     299     348     355     306     300     349     356     307
     266       2     300     349     356     307     301     350     357     308
     267       2     301     350     357     308     302     351     358     309
     268       2     302     351     358     309     303     352     359     310
     269       2     304     353     360     311     305     354     361     312
     270       2     305     354     361     312     306     355     362     313
     271       2     306     355     362     313     307     356     363     314
     272       2     307     356     363     314     308     357     364     315
     273       2     308     357     364     315     309     358     365     316
     274       2     309     358     365     316     310     359     366     317
     275       2     311     360     367     318     312     361     368     319
     276       2     312     361     368     319     313     362     369     320
$ ... 1492 like lines cut
*ELEMENT_SHELL
$#   eid     pid      n1      n2      n3      n4      n5      n6      n7      n8
       1       1      18      19       2       1                                
       2       1      19      20       3       2                                
       3       1      20      21       4       3                                
       4       1      21      22       5       4                                
       5       1      22      23       6       5                                
       6       1      23      24       7       6                                
       7       1      24      25       8       7                                
       8       1      25      26       9       8                                
       9       1      26      27      10       9                                
      10       1      27      28      11      10                                
      11       1      28      29      12      11                                
      12       1      29      30      13      12                                
      13       1      30      31      14      13                                
      14       1      31      32      15      14                                
      15       1      32      33      16      15                                
      16       1      33      34      17      16                                
      17       1      35      36      19      18                                
      18       1      36      37      20      19                                
      19       1      37      38      21      20                                
      20       1      38      39      22      21                                
$ ... 236 like lines cut
*NODE
$#   nid               x               y               z      tc      rc
       1          -150.0          -150.0                                
       2          -150.0         -131.25                                
       3          -150.0          -112.5                                
       4          -150.0          -93.75                                
       5          -150.0           -75.0                                
       6          -150.0          -56.25                                
       7          -150.0           -37.5                                
       8          -150.0          -18.75                                
       9          -150.0                                                
      10          -150.0           18.75                                
      11          -150.0            37.5                                
      12          -150.0           56.25                                
      13          -150.0            75.0                                
      14          -150.0           93.75                                
      15          -150.0           112.5                                
      16          -150.0          131.25                                
      17          -150.0           150.0                                
      18         -131.25          -150.0                                
      19         -131.25         -131.25                                
      20         -131.25          -112.5                                
$ ... 1920 like lines cut
*END
