$# LS-DYNA Keyword file created by LS-PrePost 3.1 (Beta) - 28Jan2011(13:51)
$# Created on Jun-26-2013 (14:04:55)
$# Unit: kg, m, s, N, Pa 
*KEYWORD
*CONTROL_IMPLICIT_GENERAL
$#  imflag       dt0    imform      nsbs       igs     cnstn      form    zero_v
         1     0.000         0         0         0         0         0         0
*CONTROL_IMPLICIT_EIGENVALUE
$#    neig    center     lflag    lftend     rflag    rhtend    eigmth    shfscl
        20     0.000         0     0.000         0     0.000         0     0.000
$#  isolid     ibeam    ishell   itshell
         0         0         0         0
*CONTROL_IMPLICIT_SOLUTION
$#  nsolvr    ilimit    maxref     dctol     ectol     rctol     lstol    abstol
         1         0         0     0.000     0.000     0.000     0.000     0.000
$#   dnorm    diverg     istif   nlprint    nlnorm   d3itctl
         2         1         1         0         2         0
$#  arcctl    arcdir    arclen    arcmth    arcdmp
         0         0     0.000         1         2
*SET_NODE
$#     sid       da1       da2       da3       da4    solver
         1
   2849000   2849001
*SET_NODE_LIST
$#     sid       da1       da2       da3       da4    solver
         2
$#    nid1      nid2      nid3      nid4      nid5      nid6      nid7      nid8
   2845697   2859262   2845667   2859094   2845637   2858926   2845607   2858758
   2845577   2858590   2845205   2858422   2845512   2858179   2845506   2858156
   2845507   2858170   2845509   2859349   2845715   2859400   2845708   2859315
   2845678   2859147   2845648   2858979   2845618   2858811   2845588   2858643
   2845558   2858475   2845464   2857919   2845458   2857901   2844797   2857771
   2845401   2857528   2845398   2857542   2845402   2857566   2845408   2857576
   2845407   2857552   2845404   2857592   2845412   2857602   2845411   2858172
   2845485   2858042   2845461   2857912   2844787   2857782   2845431   2857708
   2845430   2857698   2845429   2857724   2845434   2857731   2845433   2857715
   2845432   2857745   2845437   2857752   2845436   2857735   2845410   2857583
   2844895   2854145   2844894   2854122   2844888   2854098   2844885   2854074
   2844883   2854034   2844929   2854024   2844930   2854011   2844931   2856505
   2845184   2856265   2845183   2856246   2845190   2856286   2845189   2856270
   2845186   2856280   2845194   2856290   2845193   2856238   2845179   2855963
   2856337   2854202   2854207   2854200   2854429   2854426   2854450   2854447
   2854471   2854468   2854492   2854489   2854513   2854510   2854539   2854537
   2844961   2854526   2844956   2854355   2844915   2854376   2844919   2854383
   2844916   2854192   2844898   2854154   2844890   2854144         0         0
*BOUNDARY_SPC_SET
$#    nsid       cid      dofx      dofy      dofz     dofrx     dofry     dofrz
         2         0         1         1         1         1         1         1
*CONTROL_TERMINATION
$#  endtim    endcyc     dtmin    endeng    endmas
  1.000000         0     0.000     0.000     0.000
*DATABASE_BINARY_D3PLOT
$#      dt      lcdt      beam     npltc    psetid
  0.005000         0         0         0         0
$#   ioopt
         0
*ELEMENT_SOLID
$#   eid     pid      n1      n2      n3      n4      n5      n6      n7      n8
 2096627 2000657 2845295 2849002 2849013 2849010 2849004 2849011 2849016 2849015
 2096628 2000657 2845296 2849008 2849013 2849002 2849003 2849014 2849016 2849011
 2096629 2000657 2845789 2849005 2849013 2849008 2849006 2849012 2849016 2849014
 2096630 2000657 2845790 2849010 2849013 2849005 2849007 2849015 2849016 2849012
 2096631 2000657 2845340 2849009 2849014 2849003 2849004 2849015 2849016 2849011
 2096632 2000657 2845820 2849006 2849014 2849009 2849007 2849012 2849016 2849015
 2096633 2000657 2844779 2849017 2849028 2849025 2849019 2849026 2849031 2849030
 2096634 2000657 2845211 2849023 2849028 2849017 2849018 2849029 2849031 2849026
 2096635 2000657 2845856 2849020 2849028 2849023 2849021 2849027 2849031 2849029
 2096636 2000657 2845857 2849025 2849028 2849020 2849022 2849030 2849031 2849027
 2096637 2000657 2846038 2849024 2849029 2849018 2849019 2849030 2849031 2849026
 2096638 2000657 2845944 2849021 2849029 2849024 2849022 2849027 2849031 2849030
 2096639 2000657 2846036 2849032 2849043 2849040 2849034 2849041 2849046 2849045
 2096640 2000657 2845962 2849038 2849043 2849032 2849033 2849044 2849046 2849041
 2096641 2000657 2845961 2849035 2849043 2849038 2849036 2849042 2849046 2849044
 2096642 2000657 2845997 2849040 2849043 2849035 2849037 2849045 2849046 2849042
 2096643 2000657 2845964 2849039 2849044 2849033 2849034 2849045 2849046 2849041
 2096644 2000657 2845963 2849036 2849044 2849039 2849037 2849042 2849046 2849045
 2096645 2000657 2845856 2849021 2849054 2849052 2849020 2849027 2849057 2849056
 2096646 2000657 2845944 2849050 2849054 2849021 2849022 2849055 2849057 2849027
$ ... 13464 like lines cut
*NODE
$#   nid               x               y               z      tc      rc
 2812076      -0.8230394      -0.1412890       0.7234254
 2812077      -0.8263025       0.0220396       0.7243455
 2812078      -0.7820525      -0.0775370       0.7231790
 2812081      -0.7833675      -0.0229505       0.7235094
 2812082      -0.8252147      -0.0324032       0.7240388
 2812083      -0.8241270      -0.0868461       0.7237322
 2812084      -0.7846826       0.0316361       0.7238399
 2812085      -0.7807376      -0.1321236       0.7228485
 2812086      -0.8273905       0.0764825       0.7246521
 2812087      -0.7859980       0.0862226       0.7241704
 2812088      -0.8208645      -0.2501747       0.7228121
 2812105      -0.7781081      -0.2412967       0.7221875
 2812118      -0.7767936      -0.2958794       0.7218570
 2812122      -0.8197773      -0.3046137       0.7225055
 2812124      -0.8219519      -0.1957318       0.7231188
 2812125      -0.7794228      -0.1867101       0.7225180
 2812127      -0.8670619      -0.0418559       0.7245681
 2812128      -0.8662015      -0.0961551       0.7242853
 2812131      -0.8679224       0.0124433       0.7248510
 2812135      -0.8653412      -0.1504543       0.7240024
$ ... 16021 like lines cut
*PART
$# title
engine_solids                                                                   
$#     pid     secid       mid     eosid      hgid      grav    adpopt      tmid
   2000657   2000657   2000657
*SECTION_SOLID
$#   secid    elform       aet
   2000657        18         0
*MAT_ELASTIC
$#     mid        ro         e        pr        da        db  not used
   2000657 2.5400E+3 2.100E+11  0.300000     0.000     0.000         0
*SET_SEGMENT
$#     sid
         1 
$#      n1        n2        n3        n4
   2858424   2845203   2858434   2858439
   2853562   2861068   2860935   2844713
   2845286   2856888   2856898   2856894
   2849980   2849986   2849982   2844284
   2844301   2849980   2849984   2849981
   2849980   2844301   2849983   2849986
   2854089   2854092   2854074   2844885
   2859191   2845687   2859236   2859239
   2845967   2860726   2860740   2860734
   2857912   2845461   2859691   2859694
   2860982   2861014   2861005   2846005
   2856629   2845239   2849209   2856772
   2849209   2845239   2849210   2849218
   2845250   2856703   2856772   2849209
   2861012   2861014   2860982   2846019
   2849209   2849218   2849211   2845250
   2849981   2849987   2849983   2844301
   2860215   2845870   2860261   2860267
   2851322   2844087   2850494   2851349
   2857401   2845373   2857624   2857652
$ ... 4860 like lines cut
*END
