*KEYWORD
*CONSTRAINED_INTERPOLATION
     17650     43135       123
      1326       123        1.
      1330       123        1.
      1338       123        1.
      1342       123        1.
      1343       123        1.
      1346       123        1.
      1347       123        1.
      2091       123        1.
      2093       123        1.
      2094       123        1.
      2095       123        1.
      2096       123        1.
      2851       123        1.
      2854       123        1.
      2855       123        1.
      2904       123        1.
      2907       123        1.
      2909       123        1.
      2910       123        1.
$ ... 35 like lines cut
*PART
BOLT no diam PSOLID Property
        99        99        88                             0         0          
*SECTION_SOLID_TITLE
BOLT no diam PSOLID Property
        99        -2
*PART
L-BEAM
       100       100       100                             0         0          
*SECTION_SOLID_TITLE
L-BEAM
       100        -2
*PART
STOD
       101       101       100                             0         0          
*SECTION_SOLID_TITLE
STOD
       101        -2
*MAT_PIECEWISE_LINEAR_PLASTICITY_TITLE
8.8 bolt material
        88   7.85E-9   210000.       0.3                  0.     1.E20        0.
        0.        0.                            0.          
        0.       0.1        1.        0.        0.        0.        0.        0.
      640.      900.     1000.        0.        0.        0.        0.        0.
*MAT_ANISOTROPIC_VISCOPLASTIC_TITLE
plastic 355
       100   7.85E-9   200000.       0.3      236.         2       100          
                                                                                
                                                                                
                                        
                                                            
                                                                      
*DEFINE_CURVE_TITLE
for plastic material
       100                                                            
                  0.                236.
                0.02                355.
                 0.2                600.
                 0.5                700.
*DATABASE_CROSS_SECTION_PLANE_ID
         1bolt                                                                  
         4-968.99875-973.99799-999.00017-968.99875-973.99799-998.00017       2.8
 19.999444.004365306-.00017455        0.        0.         0         0
*DATABASE_CROSS_SECTION_PLANE_ID
         2bolt                                                                  
         4 -988.9982-974.00236     -999. -988.9982-974.00236     -998.       2.8
        0.        0.        0.        0.        0.         0         0
*DATABASE_CROSS_SECTION_PLANE_ID
         3bolt                                                                  
         4-968.99238-953.99678-999.00005-968.99238-953.99678-998.00005       2.8
20.005815520.0055738-5.2443E-5        0.        0.         0         0
*DATABASE_CROSS_SECTION_PLANE_ID
         4bolt                                                                  
         4 -988.9965-953.99909-999.00035 -988.9965-953.99909-998.00035       2.8
.00169755720.0032692-.00035329        0.        0.         0         0
*DATABASE_CROSS_SECTION_PLANE_ID
        13SECFORC_PLAT                                                          
         5     -979.    -996.5-955.64532     -979.    -996.5-954.64532 20.205645
        0.        0.        0.        0.        0.         0         0
*SET_PART_LIST_TITLE
bolt
         4                                        
        99
*SET_PART_LIST_TITLE
Cross Section@_2
         5        0.        0.        0.        0.
       100
*SET_NODE_LIST_TITLE
load point
       109                                        
     43135
*SET_PART_LIST_TITLE
Global contact
       111        0.        0.        0.        0.
        99       100       101
*SET_NODE_LIST_TITLE
FiXED
       112        0.        0.        0.        0.
      9058      9065      9085      9089      9099      9251      9259      9267
      9344      9355      9361      9375      9376      9377      9378      9379
      9380      9381      9382      9383      9384      9385      9386      9387
      9388      9389      9390      9391      9392      9393      9394      9395
      9396      9397      9398      9399      9400      9401      9402      9403
      9420      9421      9422      9423      9424      9425      9426      9427
      9428      9429      9430      9431      9432      9438      9439      9440
      9441      9442      9443      9444      9445      9446      9447      9448
      9449      9450      9451      9452      9453      9454      9455      9456
      9457      9458      9459      9460      9461      9462      9463      9464
      9465      9467      9468      9469      9471      9472      9473      9475
      9476      9477      9479      9480      9481      9483      9484      9485
      9487      9488      9489      9491      9492      9493      9495      9496
      9497      9499      9500      9501      9503      9504      9505      9507
      9508      9509      9511      9512      9513      9515      9516      9517
      9519      9520      9521      9523      9524      9525      9526      9527
      9528      9529      9530      9531      9532      9533      9534      9535
      9536      9538      9539      9540      9541      9542      9543      9544
      9545      9546      9547      9548      9549      9550      9551      9552
$ ... 172 like lines cut
*END
