$# LS-DYNA Keyword file created by WB-LSDYNA 2026 R1
$# Data in consistent NMM units. See Solving Units in the help system for more information.
*KEYWORD
*PARAMETER_DUPLICATION
4
*DATABASE_FORMAT
$    iform   ibinary                                                      unused
         0         0                                                            
*CONTROL_TERMINATION
$   endtim    endcyc     dtmin    endeng    endmas                        unused
       0.1  10000000     0.001         0    100000                              
*CONTROL_TIMESTEP
$   dtinit    tssfac      isdo    tslimt     dt2ms      lctm     erode     ms1st
         0       0.9         0         0         0         0         1         0
$   dt2msf   dt2mslc     imscl              unused     rmscl     emscl      ihdo
         0         0         0                             0         0         0
*CONTROL_CONTACT
$   slsfac    rwnpal    islchk    shlthk    penopt    thkchg     orien    enmass
         0         0         1         1         1         0         2         0
$   usrstr   usrfric     nsbcs    interm     xpene     ssthk      ecdt   tiedprj
         0         0         0         0         0         0         0         0
$    sfric     dfric       edc       vfc        th     th_sf    pen_sf    unused
         0         0         0         0         0         0         0          
$   ignore    frceng   skiprwg    outseg   spotstp   spotdel   spothin   unused1
         2         1         0         1         0         1       0.5          
$     isym    nserod    rwgaps    rwgdth     rwksf      icov    swradf    ithoff
         0         0         0         0         0         0         0         0
$   shledg    pstiff    ithcnt    tdcnof     ftall                       unused2
         1         0         0         0         1                              
*CONTROL_ENERGY
$     hgen      rwen    slnten     rylen                                  unused
         2         2         2         2                                        
*CONTROL_ACCURACY
$      osu       inn    pidosu                                            unused
         0         1         0                                                 0
*CONTROL_BULK_VISCOSITY
$       q1        q2      type                                            unused
       1.5      0.06        -2                                                  
*CONTROL_SOLID
$    esort    fmatrx   niptets    swlocl                                  unused
         1         0         0         0                                        
$    pm1     pm2     pm3     pm4     pm5     pm6     pm7     pm8     pm9    pm10
       0       0       0       0       0       0       0       0       0       0
$   tet13v     rinrt    coheqc                                           unused2
         1         0         0                                                  
*CONTROL_SHELL
$   wrpang     esort     irnxx    istupd    theory       bwc     miter      proj
        20         1        -1         4         2         1         1         1
$  rotascl    intgrd    lamsht    cstyp6    tshell    nfail1    nfail4   psnfail
         0         0         0         0         0         1         1         0
$   pstupd    irquad     cntco                                            unused
         0         0         2                                                  
*CONTROL_OUTPUT
$    npopt    neecho    nrefup    iaccop     opifs    ipnint    ikedit    iflush
         1         0         0         0         0         0         0         0
$    iprtf    ierode     tet10    msgmax    ipcurv                        unused
         0         0         0         0         0                              
*CONTROL_PARALLEL
$     ncpu    numrhs    consti      para                                  unused
         0         0         1         0                                        
*CONTROL_SOLUTION
$     soln       nlq     isnan     lcint                                  unused
         0         0         0         0                                        
*CONTROL_HOURGLASS
$      ihq        qh                                                     unused1
         5       0.1                                                            
*SECTION_SOLID
$       ID    elform       aet                                           unused1
         1         1         0                                                  
*MAT_ELASTIC
$       ID        ro         E        pr        da        db         k   unused1
         1  7.85E-09    200000       0.3         0         0         0          
$Material Id = {1,{B2E08BF6-8C58-4F50-9EF2-43CC80FB3A8C}, Structural Steel}
*PART
$                                                             partname   unused1
                                                                 Solid          
$       ID     secid       mid     eosid      hgid      grav     adopt      tmid
         1         1         1         0         0         0         0         0
*NODE
       1    975.00000000    172.20304682     95.77766428                        
       2    950.00000000    172.20304682     95.77766428                        
       3    925.00000000    172.20304682     95.77766428                        
       4    900.00000000    172.20304682     95.77766428                        
       5    875.00000000    172.20304682     95.77766428                        
       6    850.00000000    172.20304682     95.77766428                        
       7    825.00000000    172.20304682     95.77766428                        
       8    800.00000000    172.20304682     95.77766428                        
       9    775.00000000    172.20304682     95.77766428                        
      10    750.00000000    172.20304682     95.77766428                        
      11    725.00000000    172.20304682     95.77766428                        
      12    700.00000000    172.20304682     95.77766428                        
      13    675.00000000    172.20304682     95.77766428                        
      14    650.00000000    172.20304682     95.77766428                        
      15    625.00000000    172.20304682     95.77766428                        
      16    600.00000000    172.20304682     95.77766428                        
      17    575.00000000    172.20304682     95.77766428                        
      18    550.00000000    172.20304682     95.77766428                        
      19    525.00000000    172.20304682     95.77766428                        
      20    500.00000000    172.20304682     95.77766428                        
$ ... 6704 like lines cut
*ELEMENT_SOLID
       1       1
       1     157     859     430    4800    4796    4778    4789
       2       1
       1     430     859     157       2     431     860     158
       3       1
       2     431     860     158       3     432     861     159
       4       1
       3     432     861     159       4     433     862     160
       5       1
       4     433     862     160       5     434     863     161
       6       1
       5     434     863     161       6     435     864     162
       7       1
       6     435     864     162       7     436     865     163
       8       1
       7     436     865     163       8     437     866     164
       9       1
       8     437     866     164       9     438     867     165
      10       1
       9     438     867     165      10     439     868     166
$ ... 11340 like lines cut
*DEFINE_COORDINATE_SYSTEM
$       ID        xO        yO        zO        xL        yL        zL   unused1
        23         0         0         0         1         0         0          
$       xP        yP        zP                                           unused2
         0         1         0                                                  
*SET_NODE_LIST
         1
      4801      4802      4803      4804      4805      4806      4807      4808
      4809      4810      4811      4812      4813      4814      4815      4816
      4817      4818      4819      4820      4821      4822      4823      4824
      4825      4826      4827      4828      4829      4830      4831      4832
      4833      4834      4835      4836      4837      4838      4839      4840
      4841      4842      4843      4844      4845      4846      4847      4848
      4849      4850      4851      4852      4853      4854      4855      4856
      4857      4858      4859      4860      4861      4862      4863      4864
      4865      4866      4867      4868      4869      4870      4871      4872
      4873      4874      4875      4876      4877      4878      4879      4880
      4881      4882      4883      4884      4885      4886      4887      4888
      4889      4890      4891      4892      4893      4894      4895      4896
      4897      4898      4899      4900      4901      4902      4903      4904
      4905      4906      4907      4908      4909      4910      4911      4912
      4913      4914      4915      4916      4917      4918      4919      4920
      4921      4922      4923      4924      4925      4926      4927      4928
      4929      4930      4931      4932      4933      4934      4935      4936
      4937      4938      4939      4940      4941      4942      4943      4944
      4945      4946      4947      4948      4949      4950      4951      4952
      4953      4954      4955      4956      4957      4958      4959      4960
      4961      4962      4963      4964
*DEFINE_CURVE
$       ID      sidr       sfa       sfo      offa      offo    dattyp   unused1
         2         0         0         0         0         0         0          
$                 a1                  o1                                 unused1
                   0                   0                                        
$                 a1                  o1                                 unused1
                 0.1                   0                                        
$                 a1                  o1                                 unused1
                   1                   0                                        
*BOUNDARY_PRESCRIBED_MOTION_SET
$      sid       dof       vad      lcid        sf       vid     death     birth
         1         1         2         2         1         0         0         0
*DEFINE_CURVE
$       ID      sidr       sfa       sfo      offa      offo    dattyp   unused1
         3         0         0         0         0         0         0          
$                 a1                  o1                                 unused1
                   0                   0                                        
$                 a1                  o1                                 unused1
                 0.1                   0                                        
$                 a1                  o1                                 unused1
                   1                   0                                        
*BOUNDARY_PRESCRIBED_MOTION_SET
$      sid       dof       vad      lcid        sf       vid     death     birth
         1         2         2         3         1         0         0         0
*DEFINE_CURVE
$       ID      sidr       sfa       sfo      offa      offo    dattyp   unused1
         4         0         0         0         0         0         0          
$                 a1                  o1                                 unused1
                   0                   0                                        
$                 a1                  o1                                 unused1
                 0.1                   0                                        
$                 a1                  o1                                 unused1
                   1                   0                                        
*BOUNDARY_PRESCRIBED_MOTION_SET
$      sid       dof       vad      lcid        sf       vid     death     birth
         1         3         2         4         1         0         0         0
*SET_NODE_LIST
         2
      4681      4682      4683      4684      4685      4686      4687      4688
      4689      4690      4691      4692      4693      4694      4695      4696
      4697      4698      4699      4700      4701      4702      4703      4704
      4705      4706      4707      4708      4709      4710      4711      4712
      4713      4714      4715      4716      4717      4718      4719      4720
      4721      4722      4723      4724      4725      4726      4727      4728
      4729      4730      4731      4732      4733      4734      4735      4736
      4737      4738      4739      4740      4741      4742      4743      4744
      4745      4746      4747      4748      4749      4750      4751      4752
      4753      4754      4755      4756      4757      4758      4759      4760
      4761      4762      4763      4764      4765      4766      4767      4768
      4769      4770      4771      4772      4773      4774      4775      4776
      4777      4778      4779      4780      4781      4782      4783      4784
      4785      4786      4787      4788      4789      4790      4791      4792
      4793      4794      4795      4796      4797      4798      4799      4800
      5316      5317      5318      5319      5320      5321      5322      5323
      5324      5325      5365      5405      5796      5797      5798      5799
      5800      5801      5802      5803      5804      5805      5845      6236
      6237      6238      6239      6240      6241      6242      6243      6244
      6245      6285      6676      6677      6678      6679      6680      6681
      6682      6683      6684      6685
*DEFINE_CURVE
$       ID      sidr       sfa       sfo      offa      offo    dattyp   unused1
         7         0         0         0         0         0         0          
$                 a1                  o1                                 unused1
                   0                   0                                        
$                 a1                  o1                                 unused1
                 0.1              -10000                                        
$                 a1                  o1                                 unused1
                   1              -10000                                        
*LOAD_NODE_SET
$      nid       dof      lcid        sf       cid        m1        m2        m3
         2         2         7 0.0060976        23         0         0         0
*SET_SEGMENT
        16
     12011     12012     11875     11877
     12012     12013     11874     11875
     12013     12014     11873     11874
     12014     12015     11872     11873
     12015     12016     11871     11872
     12016     12017     11870     11871
     12017     12018     11869     11870
     12018     12019     11868     11869
     12019     12020     11867     11868
     12020     12021     11866     11867
*SET_SEGMENT
        17
      5966      5552      5464      5465
      5465      5459      5471      5966
      5471      5472      5967      5966
      5967      5551      5552      5966
      5472      5473      5968      5967
      5968      5550      5551      5967
      5473      5474      5969      5968
      5969      5549      5550      5968
      5474      5475      5970      5969
      5970      5548      5549      5969
      5475      5476      5971      5970
      5971      5547      5548      5970
      5476      5477      5972      5971
      5972      5546      5547      5971
      5477      5478      5973      5972
      5973      5545      5546      5972
*SET_NODE_LIST_TITLE
Node_Set_7
         7
      6247      6248      6249      6264      6265      6266      6267      6268
      6269      6270      6271      6272      6273      6274      6275      6276
      6277      6278      6279      6280      6281      6282      6283      6284
      6285      6286      6287      6288      6289      6290      6291      6292
      6293      6294      6295      6296      6297      6298      6299      6300
      6301      6302      6303      6304      6305      6306      6307      6308
      6309      6310      6311      6312      6313      6314      6315      6316
      6317      6318      6319      6320      6321      6322      6323      6324
      6325      6326      6327      6328      6329      6330      6331      6332
      6333      6334      6335      6336      6337      6338      6339      6340
      6341      6342      6343      6344      6345      6346      6347      6348
      6349      6350      6351      6352      6353      6354      6355      6356
      6357      6358      6359      6360      6361      6362      6363      6364
      6365      6366      6367      6368      6369      6370      6371      6372
      6373      6374      6375      6376      6377      6378      6379      6380
      6381      6382      6383      6384      6385      6386      6387      6388
      6389      6390      6391      6392      6393      6394      6395      6396
      6397      6398      6399      6400      6401      6402      6403      6404
      6405      6406      6407      6408      6409      6410      6411      6412
$ ... 17 like lines cut
*DATABASE_GLSTAT
$       dt    binary      lcur     ioopt     dthff     binhf             unused1
    0.0001         3         0         0         0         0                   0
*DATABASE_SPCFORC
$       dt    binary      lcur     ioopt     dthff     binhf             unused1
    0.0001         3         0         0         0         0                   0
*DATABASE_RCFORC
$       dt    binary      lcur     ioopt     dthff     binhf             unused1
    0.0001         3         0         0         0         0                   0
*DATABASE_NCFORC
$       dt    binary      lcur     ioopt     dthff     binhf             unused1
    0.0001         3         0         0         0         0                   0
*DATABASE_BNDOUT
$       dt    binary      lcur     ioopt     dthff     binhf             unused1
    0.0001         3         0         0         0         0                   0
*DATABASE_NODOUT
$       dt    binary      lcur     ioopt     dthff     binhf             unused1
    0.0001         3         0         0         0         0                   0
*DATABASE_MATSUM
$       dt    binary      lcur     ioopt     dthff     binhf             unused1
    0.0001         3         0         0         0         0                   0
*DATABASE_ELOUT
$       dt    binary      lcur     ioopt     dthff     binhf             unused1
    0.0001         3         0         0         0         0                   0
*DATABASE_JNTFORC
$       dt    binary      lcur     ioopt     dthff     binhf             unused1
    0.0001         3         0         0         0         0                   0
*DATABASE_DEFORC
$       dt    binary      lcur     ioopt     dthff     binhf             unused1
    0.0001         3         0         0         0         0                   0
*DATABASE_TPRINT
$       dt    binary      lcur     ioopt     dthff     binhf             unused1
    0.0001         3         0         0         0         0                   0
*DATABASE_EXTENT_BINARY
$    neiph     neips    maxint    strflg    sigflg    epsflg    rltflg    engflg
         0         0         0        10         1         1         0         0
$   cmpflg    ieverp    beamip     dcomp      shge     stssz    n3thdt   ialemat
         0         0         0         0         0         0         0         0
$  nintsld   pkp_sen      sclp     hydro     msscl     therm    intout    nodout
         0         0         0         0         2         0                    
*DATABASE_BINARY_D3PLOT
$       dt      lcdt      beam     npltc    psetid                       unused1
     0.005         0         0         0         0                              
$    ioopt                                                               unused2
         0                                                                      
*DATABASE_BINARY_INTFOR
$       dt      lcdt      beam     npltc    psetid                        unused
     0.005         0         0         0         0                              
*DATABASE_BINARY_D3PROP
$    ifile     imatl     iwall                                           unused2
         2         1         0                                                  
*END
