$# LS-DYNA Keyword file created by LS-KwdReader(R) V1.0 (Beta) - 07May2020
$# Created on Sep-6-2024 (21:42:02)
*KEYWORD
*TITLE
$#                                                                         title
LS-DYNA keyword deck by LS-PrePost
*CONTROL_ACCURACY
$#     osu       inn    pidosu      iacc     exacc
         0         1         0         0       0.0
*CONTROL_ADAPSTEP
$#  factin    dfactr
       1.0      0.01
*CONTROL_ADAPTIVE
$# adpfreq    adptol    adptyp    maxlvl    tbirth    tdeath     lcadp    ioflag
2.50000E-4       5.0         2         3       0.01.00000E20         0         1
$# adpsize    adpass    ireflg    adpene     adpth    memory    orient     maxel
      1.83         1         0       5.0       0.0         0         0         0
$#  adpscl         -         -    adpene    adpdam    memory         -         -
        -1                           0.0         0         0                    
$#    dam1
          
*CONTROL_BULK_VISCOSITY
$#      q1        q2      type     btype    tstype
       1.5      0.06        -1         0         0
*CONTROL_CONTACT
$#  slsfac    rwpnal    islchk    shlthk    penopt    thkchg     orien    enmass
       0.1       0.0         2         1         4         0         4         0
$#  usrstr    usrfrc     nsbcs    interm     xpene     ssthk      ecdt   tiedprj
         0         0        10         0       1.0         0         0         0
$#   sfric     dfric       edc       vfc        th     th_sf    pen_sf     ptscl
                                                                                
$#  ignore    frceng   skiprwg    outseg   spotstp   spotdel   spothin   dir_tie
         0                                                                      
$#    isym    nserod    rwgaps    rwgdth     rwksf      icov    swradf    ithoff
                                                                                
$#  shledg    pstiff    ithcnt    tdcnof     ftall    unused    shltrw    igactc
         0         0         0         0         0                 0.0         0
*CONTROL_ENERGY
$#    hgen      rwen    slnten     rylen     irgen     maten     drlen     disen
         2         1         2         1         2         1         1         1
*CONTROL_HOURGLASS
$#     ihq        qh
         3       0.1
*CONTROL_OUTPUT
$#   npopt    neecho    nrefup    iaccop     opifs    ipnint    ikedit    iflush
         1         0         0         0       0.0         0         0         0
*CONTROL_RIGID
$#     lmf      jntf    orthmd     partm    sparse    metalf    plotel     rbsms
         0         0         0         0         0         1         0         0
$#  norbic   gjadstf   gjadvsc    tjastf   tjadvsc   rcvlr2d
         0       0.0       0.0       0.0       0.0         0
*CONTROL_SHELL
$#  wrpang     esort     irnxx    istupd    theory       bwc     miter      proj
      20.0         1        -1         1         2         2         1         0
$# rotascl    intgrd    lamsht    cstyp6    thshel
                                                  
$# psstupd   sidt4tu     cntco    itsflg    irquad    w-mode   stretch      icrq
         0         0         0         0         3       0.0       0.0         0
*CONTROL_TERMINATION
$#  endtim    endcyc     dtmin    endeng    endmas     nosol
      0.05         0       0.0       0.01.000000E8         0
*CONTROL_TIMESTEP
$#  dtinit    tssfac      isdo    tslimt     dt2ms      lctm     erode     ms1st
       0.0       0.9         0       0.0-7.0000E-7         0         0         0
*DATABASE_GLSTAT
$#      dt    binary      lcur     ioopt
2.50000E-4         1         0         1
*DATABASE_MATSUM
$#      dt    binary      lcur     ioopt
2.50000E-4         1         0         1
*DATABASE_RCFORC
$#      dt    binary      lcur     ioopt
2.50000E-4         1         0         1
*DATABASE_BINARY_D3PLOT
$#      dt      lcdt      beam     npltc    psetid
5.00000E-4         0         0         0         0
*BOUNDARY_PRESCRIBED_MOTION_RIGID
$#     pid       dof       vad      lcid        sf       vid     death     birth
         2         6         0         2      -1.0         0       0.0       0.0
$#     pid       dof       vad      lcid        sf       vid     death     birth
         3         6         0         3       1.0         0       0.0       0.0
*BOUNDARY_SPC_SET
$#    nsid       cid      dofx      dofy      dofz     dofrx     dofry     dofrz
         1         0         0         1         0         1         0         1
*SET_NODE_LIST
$#     sid       da1       da2       da3       da4    solver       its         -
         1                                        MECH                          
$#    nid1      nid2      nid3      nid4      nid5      nid6      nid7      nid8
       600       593         0         0         0         0         0         0
*LOAD_NODE_SET
$#    nsid       dof      lcid        sf       cid        m1        m2        m3
         2         1         4       1.0         0         0         0         0
*CONTACT_FORMING_ONE_WAY_SURFACE_TO_SURFACE
$#     cid                                                                 title
$#   surfa     surfb  surfatyp  surfbtyp   saboxid   sbboxid      sapr      sbpr
         1         2         3         3         0         0         1         1
$#      fs        fd        dc        vc       vdc    penchk        bt        dt
     0.125       0.0       0.0       0.0      20.0         0       0.0       0.0
$#    sfsa      sfsb      sast      sbst     sfsat     sfsbt       fsf       vsf
       1.0       1.0       0.0       0.0       1.0       1.0       1.0       1.0
$#    soft    sofscl    lcidab    maxpar     sbopt     depth     bsort    frcfrq
         0       0.1         0     1.025         2         2       100         1
$#  penmax    thkopt    shlthk     snlog      isym     i2d3d    sldthk    sldstf
       0.0         0         0         1         0         0       0.0       0.0
$#    igap    ignore    dprfac    dtstif     edgek    unused    flangl   cid_rcf
         1         0       0.0       0.0       0.0                 0.0         0
*CONTACT_FORMING_ONE_WAY_SURFACE_TO_SURFACE
$#     cid                                                                 title
$#   surfa     surfb  surfatyp  surfbtyp   saboxid   sbboxid      sapr      sbpr
         1         3         3         3         0         0         1         1
$#      fs        fd        dc        vc       vdc    penchk        bt        dt
     0.125       0.0       0.0       0.0      20.0         0       0.0       0.0
$#    sfsa      sfsb      sast      sbst     sfsat     sfsbt       fsf       vsf
       1.0       1.0       0.0       0.0       1.0       1.0       1.0       1.0
$#    soft    sofscl    lcidab    maxpar     sbopt     depth     bsort    frcfrq
         0       0.1         0     1.025         2         2       100         1
$#  penmax    thkopt    shlthk     snlog      isym     i2d3d    sldthk    sldstf
       0.0         0         0         1         0         0       0.0       0.0
$#    igap    ignore    dprfac    dtstif     edgek    unused    flangl   cid_rcf
         1         0       0.0       0.0       0.0                 0.0         0
*CONTACT_FORMING_ONE_WAY_SURFACE_TO_SURFACE
$#     cid                                                                 title
$#   surfa     surfb  surfatyp  surfbtyp   saboxid   sbboxid      sapr      sbpr
         1         4         3         3         0         0         1         1
$#      fs        fd        dc        vc       vdc    penchk        bt        dt
     0.125       0.0       0.0       0.0      20.0         0       0.0       0.0
$#    sfsa      sfsb      sast      sbst     sfsat     sfsbt       fsf       vsf
       1.0       1.0       0.0       0.0       1.0       1.0       1.0       1.0
$#    soft    sofscl    lcidab    maxpar     sbopt     depth     bsort    frcfrq
         0       0.1         0     1.025         2         2       100         1
$#  penmax    thkopt    shlthk     snlog      isym     i2d3d    sldthk    sldstf
       0.0         0         0         1         0         0       0.0       0.0
$#    igap    ignore    dprfac    dtstif     edgek    unused    flangl   cid_rcf
         1         0       0.0       0.0       0.0                 0.0         0
*CONTACT_FORMING_ONE_WAY_SURFACE_TO_SURFACE
$#     cid                                                                 title
$#   surfa     surfb  surfatyp  surfbtyp   saboxid   sbboxid      sapr      sbpr
         1         5         3         3         0         0         1         1
$#      fs        fd        dc        vc       vdc    penchk        bt        dt
     0.125       0.0       0.0       0.0      20.0         0       0.0       0.0
$#    sfsa      sfsb      sast      sbst     sfsat     sfsbt       fsf       vsf
       1.0       1.0       0.0       0.0       1.0       1.0       1.0       1.0
$#    soft    sofscl    lcidab    maxpar     sbopt     depth     bsort    frcfrq
         0       0.1         0     1.025         2         2       100         1
$#  penmax    thkopt    shlthk     snlog      isym     i2d3d    sldthk    sldstf
       0.0         0         0         1         0         0       0.0       0.0
$#    igap    ignore    dprfac    dtstif     edgek    unused    flangl   cid_rcf
         1         0       0.0       0.0       0.0                 0.0         0
*SECTION_SHELL
$#   secid    elform      shrf       nip     propt   qr/irid     icomp     setyp
         1        16     0.833         5       1.0         0         0         1
$#      t1        t2        t3        t4      nloc     marea      idof    edgset
       1.5       1.5       1.5       1.5       0.0       0.0       0.0         0
*SECTION_SHELL
$#   secid    elform      shrf       nip     propt   qr/irid     icomp     setyp
         2         2       1.0         3       1.0         0         0         1
$#      t1        t2        t3        t4      nloc     marea      idof    edgset
       1.0       1.0       1.0       1.0       0.0       0.0       0.0         0
*SECTION_SHELL
$#   secid    elform      shrf       nip     propt   qr/irid     icomp     setyp
         3         2       1.0         3       1.0         0         0         1
$#      t1        t2        t3        t4      nloc     marea      idof    edgset
       1.0       1.0       1.0       1.0       0.0       0.0       0.0         0
*SECTION_SHELL
$#   secid    elform      shrf       nip     propt   qr/irid     icomp     setyp
         4         2       1.0         3       1.0         0         0         1
$#      t1        t2        t3        t4      nloc     marea      idof    edgset
       1.0       1.0       1.0       1.0       0.0       0.0       0.0         0
*SECTION_SHELL
$#   secid    elform      shrf       nip     propt   qr/irid     icomp     setyp
         5         2       1.0         3       1.0         0         0         1
$#      t1        t2        t3        t4      nloc     marea      idof    edgset
       1.0       1.0       1.0       1.0       0.0       0.0       0.0         0
*MAT_TRANSVERSELY_ANISOTROPIC_ELASTIC_PLASTIC
$#     mid        ro         e        pr      sigy      etan         r     hlcid
         17.90000E-9  207000.0       0.3     201.3       0.0    -1.593         1
*MAT_RIGID
$#     mid        ro         e        pr         n    couple         m     alias
         27.83000E-9  207000.0      0.28       0.0       0.0       0.0                    
$#     cmo      con1      con2    spcnid      xspc      yspc      zspc
       1.0         7         6         0       0.0       0.0       0.0
$#lco or a1        a2        a3        v1        v2        v3
       0.0       0.0       0.0       0.0       0.0       0.0
*MAT_RIGID
$#     mid        ro         e        pr         n    couple         m     alias
         37.83000E-9  207000.0      0.28       0.0       0.0       0.0                    
$#     cmo      con1      con2    spcnid      xspc      yspc      zspc
       1.0         7         6         0       0.0       0.0       0.0
$#lco or a1        a2        a3        v1        v2        v3
       0.0       0.0       0.0       0.0       0.0       0.0
*MAT_RIGID
$#     mid        ro         e        pr         n    couple         m     alias
         47.83000E-9  207000.0      0.28       0.0       0.0       0.0                    
$#     cmo      con1      con2    spcnid      xspc      yspc      zspc
       1.0         7         7         0       0.0       0.0       0.0
$#lco or a1        a2        a3        v1        v2        v3
       0.0       0.0       0.0       0.0       0.0       0.0
*MAT_RIGID
$#     mid        ro         e        pr         n    couple         m     alias
         57.83000E-9  207000.0      0.28       0.0       0.0       0.0                    
$#     cmo      con1      con2    spcnid      xspc      yspc      zspc
       1.0         7         7         0       0.0       0.0       0.0
$#lco or a1        a2        a3        v1        v2        v3
       0.0       0.0       0.0       0.0       0.0       0.0
*DEFINE_CURVE
$#    lcid      sidr       sfa       sfo      offa      offo    dattyp     lcint
         1         0       1.0       1.0       0.0       0.0         0         0
$#                a1                  o1
                 0.0                 0.0
                 1.0                13.0
*DEFINE_CURVE
$#    lcid      sidr       sfa       sfo      offa      offo    dattyp     lcint
         2         0       1.0       1.0       0.0       0.0         0         0
$#                a1                  o1
                 0.0               600.0
               100.0               600.0
*DEFINE_CURVE
$#    lcid      sidr       sfa       sfo      offa      offo    dattyp     lcint
         3         0       1.0       1.0       0.0       0.0         0         0
$#                a1                  o1
                 0.0               600.0
               100.0               600.0
*DEFINE_CURVE
$#    lcid      sidr       sfa       sfo      offa      offo    dattyp     lcint
         4         0       1.0       1.0       0.0       0.0         0         0
$#                a1                  o1
                 0.0               100.0
               0.015               100.0
               0.016                 0.0
               100.0                 0.0
*SET_NODE_LIST
$#     sid       da1       da2       da3       da4    solver       its         -
         2                                        MECH                          
$#    nid1      nid2      nid3      nid4      nid5      nid6      nid7      nid8
       695       696       697       698       694       693       692         0
*SET_PART_LIST
$#     sid       da1       da2       da3       da4    solver
         1                                        MECH
$#    pid1      pid2      pid3      pid4      pid5      pid6      pid7      pid8
         1         0         0         0         0         0         0         0
*SET_PART_LIST
$#     sid       da1       da2       da3       da4    solver
         2                                        MECH
$#    pid1      pid2      pid3      pid4      pid5      pid6      pid7      pid8
         2         0         0         0         0         0         0         0
*SET_PART_LIST
$#     sid       da1       da2       da3       da4    solver
         3                                        MECH
$#    pid1      pid2      pid3      pid4      pid5      pid6      pid7      pid8
         1         0         0         0         0         0         0         0
*SET_PART_LIST
$#     sid       da1       da2       da3       da4    solver
         4                                        MECH
$#    pid1      pid2      pid3      pid4      pid5      pid6      pid7      pid8
         3         0         0         0         0         0         0         0
*SET_PART_LIST
$#     sid       da1       da2       da3       da4    solver
         5                                        MECH
$#    pid1      pid2      pid3      pid4      pid5      pid6      pid7      pid8
         1         0         0         0         0         0         0         0
*SET_PART_LIST
$#     sid       da1       da2       da3       da4    solver
         6                                        MECH
$#    pid1      pid2      pid3      pid4      pid5      pid6      pid7      pid8
         4         0         0         0         0         0         0         0
*SET_PART_LIST
$#     sid       da1       da2       da3       da4    solver
         7                                        MECH
$#    pid1      pid2      pid3      pid4      pid5      pid6      pid7      pid8
         1         0         0         0         0         0         0         0
*SET_PART_LIST
$#     sid       da1       da2       da3       da4    solver
         8                                        MECH
$#    pid1      pid2      pid3      pid4      pid5      pid6      pid7      pid8
         5         0         0         0         0         0         0         0
*SET_PART_LIST
$#     sid       da1       da2       da3       da4    solver
         9                                        MECH
$#    pid1      pid2      pid3      pid4      pid5      pid6      pid7      pid8
         2         0         0         0         0         0         0         0
*SET_PART_LIST
$#     sid       da1       da2       da3       da4    solver
        10                                        MECH
$#    pid1      pid2      pid3      pid4      pid5      pid6      pid7      pid8
         3         0         0         0         0         0         0         0
*SET_PART_LIST
$#     sid       da1       da2       da3       da4    solver
        11                                        MECH
$#    pid1      pid2      pid3      pid4      pid5      pid6      pid7      pid8
         1         0         0         0         0         0         0         0
*INTERFACE_SPRINGBACK_LSDYNA
$#    psid      nshv     ftype         -    ftensr    nthhsv     rflag   intstrn
        11       100         0                   0         0         0         0
*ELEMENT_SHELL
$#   eid     pid      n1      n2      n3      n4      n5      n6      n7      n8
       1       4      51      73      74      52       0       0       0       0
       2       4      52      74      75      53       0       0       0       0
       3       4      53      75      76      54       0       0       0       0
       4       4      54      76      77      55       0       0       0       0
       5       4      55      77      78      56       0       0       0       0
       6       4      56      78      79      57       0       0       0       0
       7       4      57      79      80      58       0       0       0       0
       8       4      58      80      81      59       0       0       0       0
       9       4      59      81      82      60       0       0       0       0
      10       4      60      82      83      61       0       0       0       0
      11       4      61      83      84      62       0       0       0       0
      12       4      62      84      85      63       0       0       0       0
      13       4      63      85      86      64       0       0       0       0
      14       4      64      86      87      65       0       0       0       0
      15       4      65      87      88      66       0       0       0       0
      16       4      66      88      89      67       0       0       0       0
      17       4      67      89      90      68       0       0       0       0
      18       4      68      90      91      69       0       0       0       0
      19       4      69      91      92      70       0       0       0       0
      20       4      70      92      93      71       0       0       0       0
$ ... 3542 like lines cut
*NODE
$#   nid               x               y               z      tc      rc
       1        689.0768        858.6819           308.4       0       0
       2        689.0768        897.1522           308.4       0       0
       3        689.0768        935.6226           308.4       0       0
       4       -117.1495         858.682           308.4       0       0
       5       -80.50343         858.682           308.4       0       0
       6       -43.85597         858.682           308.4       0       0
       7        -7.20993         858.682           308.4       0       0
       8        29.43619         858.682           308.4       0       0
       9        66.08363         858.682           308.4       0       0
      10        102.7297         858.682           308.4       0       0
      11        139.3758         858.682           308.4       0       0
      12        176.0233         858.682           308.4       0       0
      13        212.6693         858.682           308.4       0       0
      14        249.3154         858.682           308.4       0       0
      15        285.9614         858.682           308.4       0       0
      16        322.6088         858.682           308.4       0       0
      17        359.2549         858.682           308.4       0       0
      18         395.901         858.682           308.4       0       0
      19        432.5484         858.682           308.4       0       0
      20        469.1944         858.682           308.4       0       0
$ ... 4014 like lines cut
*END
