$# LS-DYNA Keyword file created by LS-KwdReader(R) V1.0 (Beta) - 07May2020
$# Created on Jan-9-2026 (15:29:25)
*KEYWORD
*TITLE
$#                                                                         title
EM Resistive heating basic 2D problem with connected isopots
*CONTROL_SOLUTION
$#    soln       nlq     isnan     lcint     lcacc     ncdcf     nocop      crvp
         2                                                                      
*CONTROL_TERMINATION
$#  endtim    endcyc     dtmin    endeng    endmas     nosol
    0.0101         0       0.0       0.01.000000E8         0
*CONTROL_THERMAL_SOLVER
$#   atype     ptype    solver         -       gpt    eqheat     fwork       sbc
         1                                                                      
*CONTROL_THERMAL_TIMESTEP
$#      ts       tip       its      tmin      tmax     dtemp      tscp      lcts
         0       1.01.00000E-4       0.0       0.0       0.0       0.0         0
*CONTROL_TIMESTEP
$#  dtinit    tssfac      isdo    tslimt     dt2ms      lctm     erode     ms1st
       0.0       1.0         0       0.01.00000E-4         0         0         0
*DATABASE_BINARY_D3PLOT
$#      dt      lcdt      beam     npltc    psetid
1.00000E-4         0         0         0         0
*BOUNDARY_PRESCRIBED_MOTION_RIGID
$#     pid       dof       vad      lcid        sf       vid     death     birth
         1         1         2         1       1.0         0       0.0       0.0
*PART
$#                                                                         title

$#     pid     secid       mid     eosid      hgid      grav    adpopt      tmid
         1         1         1         0         0         0         0         1
*SECTION_SHELL
$#   secid    elform      shrf       nip     propt   qr/irid     icomp     setyp
         1        12       1.0         5       1.0         0         0         1
$#      t1        t2        t3        t4      nloc     marea      idof    edgset
       1.0       1.0       1.0       1.0       0.0       0.0       0.0         0
*MAT_RIGID
$#     mid        ro         e        pr         n    couple         m     alias
         1       1.02.00000E11       0.3       0.0       0.0       0.0                    
$#     cmo      con1      con2
       0.0                    
$#lco or a1        a2        a3        v1        v2        v3
       0.0       0.0       0.0       0.0       0.0       0.0
*MAT_THERMAL_ISOTROPIC
$#    tmid        ro     tgrlc    tgmult      tlat      hlat
         1     100.0       0.0       0.0       0.0       0.0
$#      hc        tc
      10.0       7.0
*INITIAL_TEMPERATURE_SET
$#    nsid      temp       loc
         0      25.0         0
*DEFINE_CURVE
$#    lcid      sidr       sfa       sfo      offa      offo    dattyp     lcint
         1         0       1.0       1.0       0.0       0.0         0         0
$#                a1                  o1
                 0.0                10.0
                10.0                10.0
*SET_NODE_LIST
$#     sid       da1       da2       da3       da4    solver       its         -
         1                                        MECH                          
$#    nid1      nid2      nid3      nid4      nid5      nid6      nid7      nid8
       521       517       513       509       525         0         0         0
*SET_NODE_LIST
$#     sid       da1       da2       da3       da4    solver       its         -
         2                                        MECH                          
$#    nid1      nid2      nid3      nid4      nid5      nid6      nid7      nid8
       642       652       661       670       643         0         0         0
*SET_NODE_LIST
$#     sid       da1       da2       da3       da4    solver       its         -
         3                                        MECH                          
$#    nid1      nid2      nid3      nid4      nid5      nid6      nid7      nid8
       549       548       577       597       617         0         0         0
*SET_NODE_LIST
$#     sid       da1       da2       da3       da4    solver       its         -
         4                                        MECH                          
$#    nid1      nid2      nid3      nid4      nid5      nid6      nid7      nid8
       653       644       626       627       662         0         0         0
*SET_PART_LIST
$#     sid       da1       da2       da3       da4    solver
         1                                        MECH
$#    pid1      pid2      pid3      pid4      pid5      pid6      pid7      pid8
         1         0         0         0         0         0         0         0
*SET_SEGMENT
$#     sid       da1       da2       da3       da4    solver       its         -
         1       0.0       0.0       0.0       0.0MECH               0          
$#      n1        n2        n3        n4        a1        a2        a3        a4
       544       575       575       575       0.0       0.0       0.0       0.0
       545       544       544       544       0.0       0.0       0.0       0.0
       575       595       595       595       0.0       0.0       0.0       0.0
       595       615       615       615       0.0       0.0       0.0       0.0
*ELEMENT_SHELL
$#   eid     pid      n1      n2      n3      n4      n5      n6      n7      n8
     405       1     513     509     527     526       0       0       0       0
     406       1     526     527     529     528       0       0       0       0
     407       1     528     529     531     530       0       0       0       0
     408       1     530     531     533     532       0       0       0       0
     409       1     532     533     535     534       0       0       0       0
     410       1     534     535     537     536       0       0       0       0
     411       1     536     537     539     538       0       0       0       0
     412       1     538     539     541     540       0       0       0       0
     413       1     540     541     543     542       0       0       0       0
     414       1     542     543     545     544       0       0       0       0
     415       1     544     545     547     546       0       0       0       0
     416       1     546     547     549     548       0       0       0       0
     425       1     517     513     526     566       0       0       0       0
     426       1     566     526     528     567       0       0       0       0
     427       1     567     528     530     568       0       0       0       0
     428       1     568     530     532     569       0       0       0       0
     429       1     569     532     534     570       0       0       0       0
     430       1     570     534     536     571       0       0       0       0
     431       1     571     536     538     572       0       0       0       0
     432       1     572     538     540     573       0       0       0       0
$ ... 60 like lines cut
*NODE
$#   nid               x               y               z      tc      rc
     509             5.0             0.0             0.0       0       0
     513             4.0    4.679490e-08             0.0       0       0
     517             3.0    9.358979e-08             0.0       0       0
     521             2.0    1.403847e-07             0.0       0       0
     525             1.0    1.871796e-07             0.0       0       0
     526             4.0             1.0             0.0       0       0
     527             5.0             1.0             0.0       0       0
     528             4.0             2.0             0.0       0       0
     529             5.0             2.0             0.0       0       0
     530             4.0             3.0             0.0       0       0
     531             5.0             3.0             0.0       0       0
     532             4.0             4.0             0.0       0       0
     533             5.0             4.0             0.0       0       0
     534             4.0             5.0             0.0       0       0
     535             5.0             5.0             0.0       0       0
     536             4.0             6.0             0.0       0       0
     537             5.0             6.0             0.0       0       0
     538             4.0             7.0             0.0       0       0
     539             5.0             7.0             0.0       0       0
     540             4.0             8.0             0.0       0       0
$ ... 90 like lines cut
*EM_OUTPUT
$#    mats      matf      sols      solf      mesh       mem    timing
         2         2         2         2         0         0         0
*EM_CONTROL
$#   emsol     numls   macrodt   dimtype    nperio         -   ncylfem   ncylbem
         3       100       0.0         1         2                5000      5000
*EM_CONTROL_TIMESTEP
$#  tstype    dtcons      lcid    factor     tsmin     tsmas     rlcsf    mecats
         11.00000E-4         0       1.0       0.0       0.0        25         0
*EM_SOLVER_FEM
$#  reltol    maxite     stype    precon   uselast  ncyclfem
     0.001      1000         1         1         1         3
*EM_MAT_004
$#     mid     mtype     sigma     eosid      nele     murel     eosmu    deatht
         1         2   10000.0         0         0       0.0         0       0.0
*EM_ISOPOTENTIAL
$#   isoid   settype     setid   rdltype
         1         2         1         0
*EM_ISOPOTENTIAL
$#   isoid   settype     setid   rdltype
         2         2         2         0
*EM_ISOPOTENTIAL
$#   isoid   settype     setid   rdltype
         3         2         3         0
*EM_ISOPOTENTIAL
$#   isoid   settype     setid   rdltype
         4         2         4         0
*EM_ISOPOTENTIAL_CONNECT
$#   conid   contype    isoid1    isoid2       vallcid/rdlid      psid
         1         3         1         0     500.0         0         0
*EM_ISOPOTENTIAL_CONNECT
$#   conid   contype    isoid1    isoid2       vallcid/rdlid      psid
         2         1         2         3      0.01         0         0
*EM_ISOPOTENTIAL_CONNECT
$#   conid   contype    isoid1    isoid2       vallcid/rdlid      psid
         3         3         4         0       0.0         0         0
*EM_ISOPOTENTIAL_ROGO
$#   isoid   settype     setid
         1         1         1
*END
