$# LS-DYNA Keyword file created by LS-KwdReader(R) V1.0 (Beta) - 07May2020
$# Created on Jan-9-2026 (15:29:25)
*KEYWORD
*TITLE
$#                                                                         title
ICFD DEM Coupling
*CONTROL_DISCRETE_ELEMENT
$#   ndamp     tdamp     frics     fricr     normk    sheark       cap       vtk
       0.9       0.9       0.3     0.001      0.01    0.2857         0         0
$#   gamma       vol       ang       gap    unused    ignore      nbuf  parallel
*CONTROL_TERMINATION
$#  endtim    endcyc     dtmin    endeng    endmas     nosol
     100.0         0       0.0       0.01.000000E8         0
*CONTROL_TIMESTEP
$#  dtinit    tssfac      isdo    tslimt     dt2ms      lctm     erode     ms1st
       0.0       0.8         0       0.0       0.0         0         0         0
*DATABASE_BINARY_D3PLOT
$#      dt      lcdt      beam     npltc    psetid
       1.0         0         0         0         0
*PART
$#                                                                         title
Disc_Sphere_101
$#     pid     secid       mid     eosid      hgid      grav    adpopt      tmid
       101         1         1         0         0         0         0         0
*SECTION_SOLID
$#   secid    elform       aet    unused    unused    unused    cohoff   gaskeit
         1         0         0                                     0.0       0.0
*MAT_RIGID_DISCRETE
$#     mid        ro         e        pr
         1    1000.0   10000.0       0.3
*DEFINE_CURVE
$#    lcid      sidr       sfa       sfo      offa      offo    dattyp     lcint
         1         0       1.0       1.0       0.0       0.0         0         0
$#                a1                  o1
                 0.0                 1.0
             10000.0                 1.0
*DEFINE_CURVE
$#    lcid      sidr       sfa       sfo      offa      offo    dattyp     lcint
         2         0       1.0       1.0       0.0       0.0         0         0
$#                a1                  o1
                 0.0                 0.0
             10000.0                 0.0
*ELEMENT_DISCRETE_SPHERE_VOLUME
$#     nid       pid    volume   inertia    radius    unused     idist      nid2
    100671       1011.32527E-5                                       0    100672
    100672       1014.51559E-6                                       0    100673
    100673       1011.25370E-5                                       0    100674
    100674       1017.56214E-6                                       0    100675
    100675       1016.32772E-6                                       0    100676
    100676       1011.47614E-5                                       0    100677
    100677       1018.67210E-6                                       0    100678
    100678       1017.56530E-6                                       0    100679
    100679       1011.18748E-5                                       0    100680
    100680       1014.22420E-6                                       0    100681
    100681       1011.41083E-5                                       0    100682
    100682       1018.08170E-6                                       0    100683
    100683       1011.50950E-5                                       0    100684
    100684       1011.36426E-5                                       0    100685
    100685       1011.53558E-5                                       0    100686
    100686       1011.14276E-5                                       0    100687
    100687       1014.77721E-6                                       0    100688
    100688       1018.81641E-6                                       0    100689
    100689       1018.62568E-6                                       0    100690
    100690       1016.00470E-6                                       0    100691
$ ... 3213 like lines cut
*NODE
$#   nid               x               y               z      tc      rc
  100671       -0.484269       -0.231492       -0.235305       0       0
  100672       -0.460556       -0.159385       -0.239736       0       0
  100673       -0.370207       -0.221431       -0.235574       0       0
  100674       -0.333305       -0.224392       -0.237811       0       0
  100675       -0.356701       -0.192654       -0.238514       0       0
  100676       -0.315035       -0.198231       -0.234767       0       0
  100677        -0.32929       -0.109111       -0.237242       0       0
  100678       -0.432847       -0.226744        -0.23781       0       0
  100679       -0.394621       -0.173631       -0.235833       0       0
  100680       -0.326957       -0.145709       -0.239962       0       0
  100681       -0.417965       -0.076311       -0.234995       0       0
  100682       -0.431618        -0.10866       -0.237538       0       0
  100683       -0.408964       -0.044019       -0.234653       0       0
  100684       -0.357248       -0.146842       -0.235162       0       0
  100685       -0.330675       -0.019545       -0.234565       0       0
  100686       -0.311264       -0.056059       -0.236013       0       0
  100687       -0.283911       -0.151937       -0.239542       0       0
  100688        -0.28509       -0.190057       -0.237172       0       0
  100689        -0.47733       -0.046891       -0.237265       0       0
  100690       -0.464918       -0.013279       -0.238713       0       0
$ ... 3213 like lines cut
*ICFD_BOUNDARY_FREESLIP
$#     pid
         3
*ICFD_BOUNDARY_PRESCRIBED_VEL
$#     pid       dof       vad      lcid        sf       vid     death     birth
         1         1         1         1       1.0         0       0.0       0.0
*ICFD_BOUNDARY_PRESCRIBED_PRE
$#     pid      lcid        sf     death     birth
         2         2       0.0       0.0       0.0
*ICFD_CONTROL_TIME
$#     ttm        dt       cfl    lcidsf     dtmin     dtmax    dtinit    tdeath
     100.0      0.05       1.0         0       0.0       0.0       0.0       0.0
*ICFD_CONTROL_DEM_COUPLING
$#   ctype        bt        dt        sf    maxvel     dtype       sff      form
         0       0.01.00000E28       1.0       0.0         0       1.0         1
*ICFD_INITIAL
$#     pid        vx        vy        vz         t         p               dfunc
         0       1.0       0.0       0.0       0.0       0.0         0         0
*ICFD_MAT
$#     mid       flg        ro       vis        st  stsflcid        ca
         1         1       2.0      0.01       0.0         0       0.0
*ICFD_MAT
$#     mid       flg        ro       vis        st  stsflcid        ca
         2         1       2.0      0.01       0.0         0       0.0
*ICFD_MAT
$#     mid       flg        ro       vis        st  stsflcid        ca
         3         1       2.0      0.01       0.0         0       0.0
*ICFD_PART
$#     pid     secid       mid
         1         1         1
*ICFD_PART
$#     pid     secid       mid
         2         1         2
*ICFD_PART
$#     pid     secid       mid
         3         1         3
*ICFD_PART_VOL
$#     pid     secid       mid
         4         1         3
$#   spid1     spid2     spid3     spid4     spid5     spid6     spid7     spid8
         1         2         3         0         0         0         0         0
*ICFD_SECTION
$#     sid
         1
*MESH_SIZE_SHAPE
$#   sname     force    method        bt        dt
BOX                1         0       0.0       0.0
      0.05      -1.0      -1.0      -1.0       1.0       1.0       1.0
*MESH_SURFACE_ELEMENT
$#   eid     pid      n1      n2      n3      n4
       1       1     699     670     691     691
       2       1     691     670     665     665
       3       1     665     670     654     654
       4       1     665     654     640     640
       5       1     640     654     630     630
       6       1     640     630     622     622
       7       1     622     630     617     617
       8       1     622     617     608     608
       9       1     608     617     601     601
      10       1     608     601     599     599
      11       1     717     723     700     700
      12       1     751     750     749     749
      13       1     593     602     600     600
      14       1     593     599     592     592
      15       1     599     601     592     592
      16       1     600     602     609     609
      17       1     609     602     618     618
      18       1     600     609     610     610
      19       1     610     609     620     620
      20       1     600     610     599     599
$ ... 1056 like lines cut
*MESH_VOLUME
$#   volid
         1
$#    pid1      pid2      pid3      pid4      pid5      pid6      pid7      pid8
         1         2         3         0         0         0         0         0
*MESH_SURFACE_NODE
$#   nid               x               y               z
       1             4.0             2.0            -2.0
       2             4.0             1.5            -2.0
       3             3.5             2.0            -2.0
       4             4.0             2.0            -1.5
       5             3.5             2.0         -1.4641
       6             4.0          1.3302         -1.5165
       7          3.5558          1.2917            -2.0
       8             4.0          1.5902         -1.1634
       9           3.134             1.5            -2.0
      10             4.0             1.0            -2.0
      11             3.0             2.0            -2.0
      12             4.0             2.0            -1.0
      13             3.0             2.0         -1.4641
      14            3.25             2.0         -1.0311
      15             4.0          1.1618         -1.0237
      16           3.134             1.0            -2.0
      17             4.0           1.567           -0.75
      18           3.567            0.75            -2.0
      19             4.0         0.72898          -1.412
      20             3.5             2.0        -0.59808
$ ... 520 like lines cut
*END
