$# LS-DYNA Keyword file created by LS-KwdReader(R) V1.0 (Beta) - 07May2020
$# Created on Jan-9-2026 (15:29:25)
*KEYWORD
*TITLE
$#                                                                         title
EM heated metal bar example
*CONTROL_SOLUTION
$#    soln       nlq     isnan     lcint     lcacc     ncdcf     nocop      crvp
         2                                                                      
*CONTROL_TERMINATION
$#  endtim    endcyc     dtmin    endeng    endmas     nosol
      20.0         0       0.0       0.01.000000E8         0
*CONTROL_THERMAL_SOLVER
$#   atype     ptype    solver         -       gpt    eqheat     fwork       sbc
         1                                                                      
*CONTROL_THERMAL_TIMESTEP
$#      ts       tip       its      tmin      tmax     dtemp      tscp      lcts
         0       1.0      0.05       0.0       0.0       0.0       0.0         0
*CONTROL_TIMESTEP
$#  dtinit    tssfac      isdo    tslimt     dt2ms      lctm     erode     ms1st
       0.0       0.9         0       0.0      0.01         1         0         0
*DATABASE_BINARY_D3PLOT
$#      dt      lcdt      beam     npltc    psetid
       0.1         0         0         0         0
*BOUNDARY_TEMPERATURE_SET
$#    nsid      lcid     cmult       loc    tdeath    tbirth
         1         0      50.0         0       0.0       0.0
*PART
$#                                                                         title

$      pid     secid       mid     eosid      hgid      grav    adpopt      tmid
$#     pid     secid       mid     eosid      hgid      grav    adpopt      tmid
         1         3         3         0         0         0         0         3
*SECTION_SOLID
$#   secid    elform       aet    unused    unused    unused    cohoff   gaskeit
         3         1         0                                     0.0       0.0
*MAT_ELASTIC
$#     mid        ro         e        pr        da        db  not used
         3    7000.01.00000E11      0.33       0.0       0.0       0.0
*PART
$#                                                                         title

$      pid     secid       mid     eosid      hgid      grav    adpopt      tmid
$#     pid     secid       mid     eosid      hgid      grav    adpopt      tmid
         2         1         1         0         0         0         0         1
*SECTION_SOLID
$#   secid    elform       aet    unused    unused    unused    cohoff   gaskeit
         1         1         0                                     0.0       0.0
*MAT_ELASTIC
$#     mid        ro         e        pr        da        db  not used
         1    8000.01.00000E11      0.33       0.0       0.0       0.0
*PART
$#                                                                         title

$      pid     secid       mid     eosid      hgid      grav    adpopt      tmid
$#     pid     secid       mid     eosid      hgid      grav    adpopt      tmid
         3         2         2         0         0         0         0         2
*SECTION_SOLID
$#   secid    elform       aet    unused    unused    unused    cohoff   gaskeit
         2         1         0                                     0.0       0.0
*MAT_ELASTIC
$#     mid        ro         e        pr        da        db  not used
         2    8000.01.00000E11      0.33       0.0       0.0       0.0
*MAT_THERMAL_ISOTROPIC
$#    tmid        ro     tgrlc    tgmult      tlat      hlat
         1    8000.0       0.0       0.0       0.0       0.0
$#      hc        tc
     400.0     400.0
*MAT_THERMAL_ISOTROPIC
$#    tmid        ro     tgrlc    tgmult      tlat      hlat
         2    8000.0       0.0       0.0       0.0       0.0
$#      hc        tc
     400.0     400.0
*MAT_THERMAL_ISOTROPIC
$#    tmid        ro     tgrlc    tgmult      tlat      hlat
         3    7000.0       0.0       0.0       0.0       0.0
$#      hc        tc
     450.0      40.0
*INITIAL_TEMPERATURE_SET
$#    nsid      temp       loc
         0      25.0         0
*DEFINE_CURVE
$#    lcid      sidr       sfa       sfo      offa      offo    dattyp     lcint
         1         0       1.0       1.0       0.0       0.0         0         0
$#                a1                  o1
                 0.0                0.01
    9.9999997474e-05                0.01
*DEFINE_CURVE
$#    lcid      sidr       sfa       sfo      offa      offo    dattyp     lcint
         2         0       1.0       1.0       0.0       0.0         0         0
$#                a1                  o1
                 0.0           4000000.0
                25.0           4000000.0
                50.0            400000.0
               100.0            400000.0
*SET_NODE_LIST
$#     sid       da1       da2       da3       da4    solver       its         -
         1                                        MECH                          
$#    nid1      nid2      nid3      nid4      nid5      nid6      nid7      nid8
      4507      4508         0         0         0         0         0         0
*ELEMENT_SOLID
$#   eid     pid      n1      n2      n3      n4      n5      n6      n7      n8
    3851       1     549     551     511     509    4489    4490    4491    4492
    3852       1    4489    4490    4491    4492    4493    4494    4495    4496
    3853       1    4493    4494    4495    4496    4497    4498    4499    4500
    3854       1    4497    4498    4499    4500    4501    4502    4503    4504
    3855       1    4501    4502    4503    4504    4505    4506    4507    4508
    3861       1       2     450     449       1    4529    4530    4531    4532
    3862       1    4529    4530    4531    4532    4533    4534    4535    4536
    3863       1    4533    4534    4535    4536    4537    4538    4539    4540
    3864       1    4537    4538    4539    4540    4541    4542    4543    4544
    3865       1    4541    4542    4543    4544    4545    4546    4547    4548
    3866       1     551     553     513     511    4490    4549    4550    4491
    3867       1    4490    4549    4550    4491    4494    4551    4552    4495
    3868       1    4494    4551    4552    4495    4498    4553    4554    4499
    3869       1    4498    4553    4554    4499    4502    4555    4556    4503
    3870       1    4502    4555    4556    4503    4506    4557    4558    4507
    3871       1       3     509     450       2    4559    4492    4530    4529
    3872       1    4559    4492    4530    4529    4560    4496    4534    4533
    3873       1    4560    4496    4534    4533    4561    4500    4538    4537
    3874       1    4561    4500    4538    4537    4562    4504    4542    4541
    3875       1    4562    4504    4542    4541    4563    4508    4546    4545
$ ... 5580 like lines cut
*NODE
$#   nid               x               y               z      tc      rc
       1           -0.24    1.403847e-09           -0.03       0       0
       2          -0.245    1.403847e-09           -0.03       0       0
       3           -0.25    1.403847e-09           -0.03       0       0
       4          -0.255    1.403847e-09           -0.03       0       0
       5           -0.26    1.403847e-09           -0.03       0       0
       6          -0.265    1.403847e-09           -0.03       0       0
       7           -0.27    1.403847e-09           -0.03       0       0
       8          -0.275    1.403847e-09           -0.03       0       0
       9           -0.28    1.403847e-09           -0.03       0       0
      10          -0.285    1.403847e-09           -0.03       0       0
      11           -0.29    1.403847e-09           -0.03       0       0
      12          -0.295    1.403847e-09           -0.03       0       0
      13            -0.3    1.403847e-09           -0.03       0       0
     449           -0.24            0.01           -0.03       0       0
     450          -0.245            0.01           -0.03       0       0
     453           -0.24            0.02           -0.03       0       0
     454          -0.245            0.02           -0.03       0       0
     457           -0.24            0.03           -0.03       0       0
     458          -0.245            0.03           -0.03       0       0
     461           -0.24            0.04           -0.03       0       0
$ ... 7996 like lines cut
*EM_OUTPUT
$#    mats      matf      sols      solf      mesh       mem    timing
         2         2         2         2         0         0         0
*EM_CONTROL
$#   emsol     numls   macrodt   dimtype    nperio         -   ncylfem   ncylbem
         3       100       0.0         0         2                5000      5000
*EM_CONTROL_TIMESTEP
$#  tstype    dtcons      lcid    factor     tsmin     tsmas     rlcsf    mecats
         1      0.01         0       1.0       0.0       0.0        25         0
*EM_SOLVER_FEM
$#  reltol    maxite     stype    precon   uselast  ncyclfem
     0.001      1000         1         1         1         3
*EM_EOS_TABULATED1
$#   eosid      lcid
         1         2
*EM_MAT_001
$#     mid     mtype     sigma     eosid    unused  eplambda    deatht   rdltype
         1         26.000000E7         0                 0.01.00000E28         0
*EM_MAT_001
$#     mid     mtype     sigma     eosid    unused  eplambda    deatht   rdltype
         2         26.000000E7         0                 0.01.00000E28         0
*EM_MAT_001
$#     mid     mtype     sigma     eosid    unused  eplambda    deatht   rdltype
         3         2   4000000         1                 0.01.00000E28         0
*END
