*KEYWORD
$===============================================================================
*PART
H5 = Lagrangian EFP casing 
$      PID     SECID       MID     EOSID      HGID      GRAV    ADPOPT      TMID
         5         5         5         5         5         0         0         0
*SECTION_SOLID
$    SECID    ELFORM       AET
         5         1
$---------------------------------------
$ mat_15  steel_4340, data from LA-11463-MS & UCRL-MA-106439
*MAT_JOHNSON_COOK
$      mid        ro         g         e        pr       dtf        vp
         5  7.830000  0.770000  2.070000  0.290000                   1
$        a         b         n         c         m        tm        tr      epso
  792.0E-5  510.0E-5      0.26     0.014      1.03    1793.0     293.0    1.0E-6
$       cp        pc     spall        it        d1        d2        d3        d4
   4.77E-6    -0.032       2.0       0.0      -0.8      2.10       0.5     0.002
$       d5
  0.610000
*EOS_GRUNEISEN
$    EOSID         C        S1        S2        S3     GAMMA         A        E0
         5    0.4578      1.33       0.0       0.0     1.670      0.43       0.0
       0.0
$---------------------------------------
$ using Al 2024-T4 casing mat, data from LA-11463-MS & UCRL-MA-106439
$ ultimate tensile strength ~ 469 MPa ~ 
*MAT_JOHNSON_COOK
$      MID       RHO         G         E        PR       DTF        VP
        55     2.785     0.286       0.0      0.30       0.0
$        A         B         n         C         m        Tm        Tr      eps0
  265.0E-5  426.0E-5     0.340    0.0150      1.00     775.0    293.00    1.0E-6
$       Cp        Pc     Spall        IT        d1        d2        d3        d4
  875.0E-8  -4.69E-3       2.0     0.000      0.13      0.13       1.5     0.011
$       d5
       0.0
*EOS_GRUNEISEN
$    EOSID         C        S1        S2        S3     GAMAO         A        EO
        55    0.5328     1.338       0.0       0.0      2.00      0.48       0.0
$       VO
 1.0000000
$---------------------------------------
*HOURGLASS
$     HGID       IHQ        QM       IBQ        Q1        Q2        QB        QW
         5         1
*MAT_ADD_EROSION
$      MID   EXCLUDE
         5         0
$    PFAIL     SIGP1     SIGVM     EPSP1     EPSSH     SIGTH   IMPULSE    FAILTM
   -4.0E-2         0         0     0.900         0         0         0         0
$-------------------------------------------------------------------------------
*PART
S22 = dummy LAG shell for filling in liner mat  (NORM=out)
$      pid     secid       mid     eosid      hgid      grav    adpopt      tmid
        22        22        22         0         0         0         0         0
*SECTION_SHELL
$    secid    elform      shrf       nip     propt   qr/irid     icomp     setyp
        22        16       0.0         0       1.0         0         0         1
$       t1        t2        t3        t4      nloc     marea      idof    edgset
     0.001     0.001     0.001     0.001       0.0       0.0       0.0         0
*MAT_RIGID 
$      MID        RO         E        PR  MADYMO_N MADY_COUP  MADYMO_M
        22     2.785       0.1       0.3
$      CMO      CON1      CON2 
         1         7         7
$      LCO         =             card 3 = must include but may be left blank
      
$-------------------------------------------------------------------------------
*PART
S23 = dummy LAG shell for filling in HE mat (NORM=out)
$      pid     secid       mid     eosid      hgid      grav    adpopt      tmid
        23        22        22         0         0         0         0         0
$===============================================================================
*ELEMENT_SOLID
    7585       5    7589    7628    7631    7592    7590    7629    7632    7593
    7586       5    7628    7667    7670    7631    7629    7668    7671    7632
    7587       5    7667    7706    7709    7670    7668    7707    7710    7671
    7588       5    7706    7745    7748    7709    7707    7746    7749    7710
    7589       5    7745    7784    7787    7748    7746    7785    7788    7749
    7590       5    7784    7823    7826    7787    7785    7824    7827    7788
    7591       5    7823    7862    7865    7826    7824    7863    7866    7827
    7592       5    7862    7901    7904    7865    7863    7902    7905    7866
    7593       5    7901    7940    7943    7904    7902    7941    7944    7905
    7594       5    7940    7979    7982    7943    7941    7980    7983    7944
    7595       5    7979    8018    8021    7982    7980    8019    8022    7983
    7596       5    8018    8057    8060    8021    8019    8058    8061    8022
    7597       5    7592    7631    7634    7595    7593    7632    7635    7596
    7598       5    7631    7670    7673    7634    7632    7671    7674    7635
    7599       5    7670    7709    7712    7673    7671    7710    7713    7674
    7600       5    7709    7748    7751    7712    7710    7749    7752    7713
    7601       5    7748    7787    7790    7751    7749    7788    7791    7752
    7602       5    7787    7826    7829    7790    7788    7827    7830    7791
    7603       5    7826    7865    7868    7829    7827    7866    7869    7830
    7604       5    7865    7904    7907    7868    7866    7905    7908    7869
$ ... 6508 like lines cut
*ELEMENT_SHELL
       1      22    2320    2321    2332    2331
       2      22    2269    2270    2281    2280
       3      22     654     655     667     666
       4      22    1674    1662    1661    1673
       5      22      84      85      98      97
       6      22    2666    2667    2675    2674
       7      22    1244    1243    1246    1247
       8      22    2193    2182    2181    2192
       9      22    1435    1423    1422    1434
      10      22    3044    3033    3032    3043
      11      22    2927    2928    2939    2938
      12      22    2471    2472    2484    2483
      13      22    2386    2387    2399    2398
      14      22    1938    1930    1929    1937
      15      22    1313    1242    1245    1321
      16      22    1152    1144    1143    1151
      17      22     384     385     393     392
      18      22    1245    1244    1247    1248
      19      22     104     395     403     117
      20      22     939     926     925     938
$ ... 7564 like lines cut
*NODE
       1   0.0000000e+00   0.0000000e+00   1.4599970e+01
       2   0.0000000e+00   3.1412309e-01   1.4595890e+01
       3   0.0000000e+00   6.2803137e-01   1.4583550e+01
       4   0.0000000e+00   9.4150919e-01   1.4563010e+01
       5   0.0000000e+00   1.2543410e+00   1.4534260e+01
       6   0.0000000e+00   1.5663140e+00   1.4497340e+01
       7   0.0000000e+00   1.8772130e+00   1.4452260e+01
       8   0.0000000e+00   2.1868260e+00   1.4399060e+01
       9   0.0000000e+00   2.4949400e+00   1.4337770e+01
      10   0.0000000e+00   2.8013439e+00   1.4268440e+01
      11   0.0000000e+00   3.1058280e+00   1.4191110e+01
      12   0.0000000e+00   3.4081841e+00   1.4105840e+01
      13   0.0000000e+00   3.7082031e+00   1.4012680e+01
      14   3.1412309e-01   0.0000000e+00   1.4595890e+01
      15   3.1421790e-01   3.1429181e-01   1.4591770e+01
      16   3.1396431e-01   6.2816268e-01   1.4579430e+01
      17   3.1317359e-01   9.4129771e-01   1.4558920e+01
      18   3.1172320e-01   1.2534840e+00   1.4530280e+01
      19   3.0957669e-01   1.5645900e+00   1.4493540e+01
      20   3.0680540e-01   1.8745400e+00   1.4448710e+01
$ ... 17507 like lines cut
*END
