$# LS-DYNA Keyword file created by LS-PrePost(R) V4.9 (Beta) - 08Dec2021
$# Created on Dec-20-2021 (22:07:39)
*KEYWORD
*TITLE
$#                                                                         title
LS-DYNA keyword deck by LS-PrePost
*PART
$#                                                                         title
500_new_spot
$#     pid     secid       mid     eosid      hgid      grav    adpopt      tmid
         1         0         0                   0         0                    
*PART
$#                                                                         title
9982285_500_COMMON
$#     pid     secid       mid     eosid      hgid      grav    adpopt      tmid
         2         0         0                             0                    
*PART
$#                                                                         title
Solid welds DSF=2 PHS DSF=1.3 UHSS DSF=1.3 sigy=3.136 nrr=10.80594 nrs=31.54411
$#     pid     secid       mid     eosid      hgid      grav    adpopt      tmid
         3         0         0                   0         0                    
*PART
$#                                                                         title
Solid welds DSF=2 PHS DSF=1.3 UHSS DSF=1.3 sigy=2.4768 nrr=18.0646 nrs=29.10524
$#     pid     secid       mid     eosid      hgid      grav    adpopt      tmid
         4         0         0                   0         0                    
*PART
$#                                                                         title
Solid welds DSF=2 PHS DSF=1.3 UHSS DSF=1.3 sigy=2.4768 nrr=12.73333 nrs=38.6007
$#     pid     secid       mid     eosid      hgid      grav    adpopt      tmid
         5         0         0                   0         0                    
*PART
$#                                                                         title
Solid welds DSF=2 PHS DSF=1.3 UHSS DSF=1.3 sigy=2.16 nrr=27.65999 nrs=29.17999
$#     pid     secid       mid     eosid      hgid      grav    adpopt      tmid
         6         0         0                   0         0                    
*PART
$#                                                                         title
Solid welds DSF=2 PHS DSF=1.3 UHSS DSF=1.3 sigy=0.6 nrr=5.60668 nrs=7.10124
$#     pid     secid       mid     eosid      hgid      grav    adpopt      tmid
         7         0         0                   0         0                    
*PART
$#                                                                         title
Solid welds DSF=2 PHS DSF=1.3 UHSS DSF=1.3 sigy=2.16 nrr=14.04464 nrs=24.46036
$#     pid     secid       mid     eosid      hgid      grav    adpopt      tmid
         8         0         0                   0         0                    
*PART
$#                                                                         title
Solid welds DSF=2 PHS DSF=1.3 UHSS DSF=1.3 sigy=1.5 nrr=11.54 nrs=17.94
$#     pid     secid       mid     eosid      hgid      grav    adpopt      tmid
         9         0         0                   0         0                    
*PART
$#                                                                         title
Solid welds DSF=2 PHS DSF=1.3 UHSS DSF=1.3 sigy=2.4768 nrr=12.73333 nrs=29.1052
$#     pid     secid       mid     eosid      hgid      grav    adpopt      tmid
        10         0         0                   0         0                    
*PART
$#                                                                         title
Solid welds DSF=2 PHS DSF=1.3 UHSS DSF=1.3 sigy=2.94 nrr=28.96 nrs=30.74
$#     pid     secid       mid     eosid      hgid      grav    adpopt      tmid
        11         0         0                   0         0                    
*PART
$#                                                                         title
Solid welds DSF=2 PHS DSF=1.3 UHSS DSF=1.3 sigy=3.136 nrr=10.36425 nrs=31.58207
$#     pid     secid       mid     eosid      hgid      grav    adpopt      tmid
        12         0         0                   0         0                    
*PART
$#                                                                         title
Solid welds DSF=2 PHS DSF=1.3 UHSS DSF=1.3 sigy=1.5 nrr=12.46 nrs=15.74
$#     pid     secid       mid     eosid      hgid      grav    adpopt      tmid
        13         0         0                   0         0                    
*PART
$#                                                                         title
Solid welds DSF=2 PHS DSF=1.3 UHSS DSF=1.3 sigy=2.94 nrr=10.80594 nrs=31.54411
$#     pid     secid       mid     eosid      hgid      grav    adpopt      tmid
        14         0         0                   0         0                    
*PART
$#                                                                         title
Solid welds DSF=2 PHS DSF=1.3 UHSS DSF=1.3 sigy=2.94 nrr=20.88834 nrs=30.6
$#     pid     secid       mid     eosid      hgid      grav    adpopt      tmid
        15         0         0                   0         0                    
*PART
$#                                                                         title
Solid welds DSF=2 PHS DSF=1.3 UHSS DSF=1.3 sigy=2.94 nrr=10.80594 nrs=26.38
$#     pid     secid       mid     eosid      hgid      grav    adpopt      tmid
        16         0         0                   0         0                    
*PART
$#                                                                         title
Solid welds DSF=2 PHS DSF=1.3 UHSS DSF=1.3 sigy=2.4768 nrr=10.80594 nrs=31.5441
$#     pid     secid       mid     eosid      hgid      grav    adpopt      tmid
        17         0         0                   0         0                    
*PART
$#                                                                         title
Solid welds DSF=2 PHS DSF=1.3 UHSS DSF=1.3 sigy=1.72 nrr=7.9814 nrs=21.93856
$#     pid     secid       mid     eosid      hgid      grav    adpopt      tmid
        18         0         0                   0         0                    
*PART
$#                                                                         title
Solid welds DSF=2 PHS DSF=1.3 UHSS DSF=1.3 sigy=2.16 nrr=11.54 nrs=17.94
$#     pid     secid       mid     eosid      hgid      grav    adpopt      tmid
        19         0         0                   0         0                    
*PART
$#                                                                         title
Solid welds DSF=2 PHS DSF=1.3 UHSS DSF=1.3 sigy=2.4768 nrr=4.08499 nrs=5.36652
$#     pid     secid       mid     eosid      hgid      grav    adpopt      tmid
        20         0         0                   0         0                    
*PART
$#                                                                         title
Solid welds DSF=2 PHS DSF=1.3 UHSS DSF=1.3 sigy=2.4768 nrr=12.73333 nrs=29.8268
$#     pid     secid       mid     eosid      hgid      grav    adpopt      tmid
        21         0         0                   0         0                    
*PART
$#                                                                         title
Solid welds DSF=2 PHS DSF=1.3 UHSS DSF=1.3 sigy=1.5 nrr=7.6356 nrs=9.4142
$#     pid     secid       mid     eosid      hgid      grav    adpopt      tmid
        22         0         0                   0         0                    
*PART
$#                                                                         title
Solid welds DSF=2 PHS DSF=1.3 UHSS DSF=1.3 sigy=2.16 nrr=14.04464 nrs=24.46036
$#     pid     secid       mid     eosid      hgid      grav    adpopt      tmid
        23         0         0                   0         0                    
*PART
$#                                                                         title
Solid welds DSF=2 PHS DSF=1.3 UHSS DSF=1.3 sigy=2.16 nrr=8.65006 nrs=10.57068
$#     pid     secid       mid     eosid      hgid      grav    adpopt      tmid
        24         0         0                   0         0                    
*PART
$#                                                                         title
Solid welds DSF=2 PHS DSF=1.3 UHSS DSF=1.3 sigy=2.16 nrr=14.25674 nrs=17.67192
$#     pid     secid       mid     eosid      hgid      grav    adpopt      tmid
        25         0         0                   0         0                    
*PART
$#                                                                         title
Solid welds DSF=2 PHS DSF=1.3 UHSS DSF=1.3 sigy=2.94 nrr=22.34594 nrs=37.50512
$#     pid     secid       mid     eosid      hgid      grav    adpopt      tmid
        26         0         0                   0         0                    
*PART
$#                                                                         title
Solid welds DSF=2 PHS DSF=1.3 UHSS DSF=1.3 sigy=2.16 nrr=13.68124 nrs=27.53704
$#     pid     secid       mid     eosid      hgid      grav    adpopt      tmid
        27         0         0                   0         0                    
*PART
$#                                                                         title
Solid welds DSF=2 PHS DSF=1.3 UHSS DSF=1.3 sigy=2.4768 nrr=12.73333 nrs=24.4603
$#     pid     secid       mid     eosid      hgid      grav    adpopt      tmid
        28         0         0                   0         0                    
*PART
$#                                                                         title
Solid welds DSF=2 PHS DSF=1.3 UHSS DSF=1.3 sigy=2.4768 nrr=14.04464 nrs=24.4603
$#     pid     secid       mid     eosid      hgid      grav    adpopt      tmid
        29         0         0                   0         0                    
*PART
$#                                                                         title
Solid welds DSF=2 PHS DSF=1.3 UHSS DSF=1.3 sigy=2.4768 nrr=14.04464 nrs=24.4603
$#     pid     secid       mid     eosid      hgid      grav    adpopt      tmid
        30         0         0                   0         0                    
*PART
$#                                                                         title
Solid welds DSF=2 PHS DSF=1.3 UHSS DSF=1.3 sigy=2.16 nrr=17.4187 nrs=26.9564
$#     pid     secid       mid     eosid      hgid      grav    adpopt      tmid
        31         0         0                   0         0                    
*PART
$#                                                                         title
Solid welds DSF=2 PHS DSF=1.3 UHSS DSF=1.3 sigy=2.16 nrr=22.36 nrs=24.74
$#     pid     secid       mid     eosid      hgid      grav    adpopt      tmid
        32         0         0                   0         0                    
*PART
$#                                                                         title
Solid welds DSF=2 PHS DSF=1.3 UHSS DSF=1.3 sigy=2.16 nrr=20.58739 nrs=33.61348
$#     pid     secid       mid     eosid      hgid      grav    adpopt      tmid
        33         0         0                   0         0                    
*PART
$#                                                                         title
Solid welds DSF=2 PHS DSF=1.3 UHSS DSF=1.3 sigy=2.16 nrr=12.46 nrs=15.74
$#     pid     secid       mid     eosid      hgid      grav    adpopt      tmid
        34         0         0                   0         0                    
*PART
$#                                                                         title
Solid welds DSF=2 PHS DSF=1.3 UHSS DSF=1.3 sigy=2.4768 nrr=12.73333 nrs=20.76
$#     pid     secid       mid     eosid      hgid      grav    adpopt      tmid
        35         0         0                   0         0                    
*PART
$#                                                                         title
Solid welds DSF=2 PHS DSF=1.3 UHSS DSF=1.3 sigy=2.4768 nrr=11.54 nrs=17.94
$#     pid     secid       mid     eosid      hgid      grav    adpopt      tmid
        36         0         0                   0         0                    
*PART
$#                                                                         title
Solid welds DSF=2 PHS DSF=1.3 UHSS DSF=1.3 sigy=2.4768 nrr=12.73333 nrs=38.6007
$#     pid     secid       mid     eosid      hgid      grav    adpopt      tmid
        37         0         0                   0         0                    
*PART
$#                                                                         title
Solid welds DSF=2 PHS DSF=1.3 UHSS DSF=1.3 sigy=1.72 nrr=4.08499 nrs=5.36652
$#     pid     secid       mid     eosid      hgid      grav    adpopt      tmid
        38         0         0                   0         0                    
*PART
$#                                                                         title
Solid welds DSF=2 PHS DSF=1.3 UHSS DSF=1.3 sigy=2.4768 nrr=12.73333 nrs=34.4717
$#     pid     secid       mid     eosid      hgid      grav    adpopt      tmid
        39         0         0                   0         0                    
*PART
$#                                                                         title
Solid welds DSF=2 PHS DSF=1.3 UHSS DSF=1.3 sigy=2.16 nrr=29.66 nrs=30.6
$#     pid     secid       mid     eosid      hgid      grav    adpopt      tmid
        40         0         0                   0         0                    
*PART
$#                                                                         title
Solid welds DSF=2 PHS DSF=1.3 UHSS DSF=1.3 sigy=2.94 nrr=25.65999 nrs=27.73999
$#     pid     secid       mid     eosid      hgid      grav    adpopt      tmid
        41         0         0                   0         0                    
*PART
$#                                                                         title
Solid welds DSF=2 PHS DSF=1.3 UHSS DSF=1.3 sigy=2.16 nrr=10.80594 nrs=31.54411
$#     pid     secid       mid     eosid      hgid      grav    adpopt      tmid
        42         0         0                   0         0                    
*PART
$#                                                                         title
Solid welds DSF=2 PHS DSF=1.3 UHSS DSF=1.3 sigy=1.5 nrr=10.80594 nrs=31.54411
$#     pid     secid       mid     eosid      hgid      grav    adpopt      tmid
        43         0         0                   0         0                    
*PART
$#                                                                         title
Solid welds DSF=2 PHS DSF=1.3 UHSS DSF=1.3 sigy=2.4768 nrr=12.73333 nrs=29.1799
$#     pid     secid       mid     eosid      hgid      grav    adpopt      tmid
        44         0         0                   0         0                    
*PART
$#                                                                         title
Solid welds DSF=2 PHS DSF=1.3 UHSS DSF=1.3 sigy=1.5 nrr=10.80594 nrs=17.94
$#     pid     secid       mid     eosid      hgid      grav    adpopt      tmid
        45         0         0                   0         0                    
*PART
$#                                                                         title
Solid welds DSF=2 PHS DSF=1.3 UHSS DSF=1.3 sigy=2.16 nrr=10.80594 nrs=20.23999
$#     pid     secid       mid     eosid      hgid      grav    adpopt      tmid
        46         0         0                   0         0                    
*PART
$#                                                                         title
Solid welds DSF=2 PHS DSF=1.3 UHSS DSF=1.3 sigy=2.94 nrr=31.64 nrs=32
$#     pid     secid       mid     eosid      hgid      grav    adpopt      tmid
        47         0         0                   0         0                    
*PART
$#                                                                         title
Solid welds DSF=2 PHS DSF=1.3 UHSS DSF=1.3 sigy=1.5 nrr=5.60668 nrs=7.10124
$#     pid     secid       mid     eosid      hgid      grav    adpopt      tmid
        48         0         0                   0         0                    
*PART
$#                                                                         title
Solid welds DSF=2 PHS DSF=1.3 UHSS DSF=1.3 sigy=2.94 nrr=20.88834 nrs=32
$#     pid     secid       mid     eosid      hgid      grav    adpopt      tmid
        49         0         0                   0         0                    
*PART
$#                                                                         title
Solid welds DSF=2 PHS DSF=1.3 UHSS DSF=1.3 sigy=1.5 nrr=10.08239 nrs=23.88438
$#     pid     secid       mid     eosid      hgid      grav    adpopt      tmid
        50         0         0                   0         0                    
*PART
$#                                                                         title
Solid welds DSF=2 PHS DSF=1.3 UHSS DSF=1.3 sigy=2.94 nrr=10.80594 nrs=27.73999
$#     pid     secid       mid     eosid      hgid      grav    adpopt      tmid
        51         0         0                   0         0                    
*PART
$#                                                                         title
Solid welds DSF=2 PHS DSF=1.3 UHSS DSF=1.3 sigy=2.4768 nrr=15.76 nrs=18.74
$#     pid     secid       mid     eosid      hgid      grav    adpopt      tmid
        52         0         0                   0         0                    
*PART
$#                                                                         title
Solid welds DSF=2 PHS DSF=1.3 UHSS DSF=1.3 sigy=2.94 nrr=20.88834 nrs=40.43999
$#     pid     secid       mid     eosid      hgid      grav    adpopt      tmid
        53         0         0                   0         0                    
*PART
$#                                                                         title
Solid welds DSF=2 PHS DSF=1.3 UHSS DSF=1.3 sigy=2.94 nrr=20.88834 nrs=45.2884
$#     pid     secid       mid     eosid      hgid      grav    adpopt      tmid
        54         0         0                   0         0                    
*PART
$#                                                                         title
Solid welds DSF=2 PHS DSF=1.3 UHSS DSF=1.3 sigy=2.94 nrr=10.80594 nrs=30.6
$#     pid     secid       mid     eosid      hgid      grav    adpopt      tmid
        55         0         0                   0         0                    
*PART
$#                                                                         title
Solid welds DSF=2 PHS DSF=1.3 UHSS DSF=1.3 sigy=2.94 nrr=20.88834 nrs=27.73999
$#     pid     secid       mid     eosid      hgid      grav    adpopt      tmid
        56         0         0                   0         0                    
*PART
$#                                                                         title
Solid welds DSF=2 PHS DSF=1.3 UHSS DSF=1.3 sigy=2.94 nrr=10.08239 nrs=23.88438
$#     pid     secid       mid     eosid      hgid      grav    adpopt      tmid
        57         0         0                   0         0                    
*PART
$#                                                                         title
Solid welds DSF=2 PHS DSF=1.3 UHSS DSF=1.3 sigy=2.94 nrr=20.88834 nrs=41.39675
$#     pid     secid       mid     eosid      hgid      grav    adpopt      tmid
        58         0         0                   0         0                    
*PART
$#                                                                         title
Solid welds DSF=2 PHS DSF=1.3 UHSS DSF=1.3 sigy=2.16 nrr=13.68124 nrs=27.53704
$#     pid     secid       mid     eosid      hgid      grav    adpopt      tmid
        59         0         0                   0         0                    
*PART
$#                                                                         title
Solid welds DSF=2 PHS DSF=1.3 UHSS DSF=1.3 sigy=2.94 nrr=20.88834 nrs=36.21999
$#     pid     secid       mid     eosid      hgid      grav    adpopt      tmid
        60         0         0                   0         0                    
*PART
$#                                                                         title
Solid welds DSF=2 PHS DSF=1.3 UHSS DSF=1.3 sigy=2.97 nrr=10.80594 nrs=31.54411
$#     pid     secid       mid     eosid      hgid      grav    adpopt      tmid
        61         0         0                   0         0                    
*PART
$#                                                                         title
Solid welds DSF=2 PHS DSF=1.3 UHSS DSF=1.3 sigy=2.97 nrr=20.88834 nrs=40.43999
$#     pid     secid       mid     eosid      hgid      grav    adpopt      tmid
        62         0         0                   0         0                    
*PART
$#                                                                         title
Solid welds DSF=2 PHS DSF=1.3 UHSS DSF=1.3 sigy=2.16 nrr=10.80594 nrs=23.24
$#     pid     secid       mid     eosid      hgid      grav    adpopt      tmid
        63         0         0                   0         0                    
*PART
$#                                                                         title
Solid welds DSF=2 PHS DSF=1.3 UHSS DSF=1.3 sigy=2.94 nrr=28.96 nrs=30.6
$#     pid     secid       mid     eosid      hgid      grav    adpopt      tmid
        64         0         0                   0         0                    
*PART
$#                                                                         title
Solid welds DSF=2 PHS DSF=1.3 UHSS DSF=1.3 sigy=2.16 nrr=10.80594 nrs=21.74
$#     pid     secid       mid     eosid      hgid      grav    adpopt      tmid
        65         0         0                   0         0                    
*PART
$#                                                                         title
Solid welds DSF=2 PHS DSF=1.3 UHSS DSF=1.3 sigy=2.4768 nrr=8.65006 nrs=10.57068
$#     pid     secid       mid     eosid      hgid      grav    adpopt      tmid
        66         0         0                   0         0                    
*PART
$#                                                                         title
Solid welds DSF=2 PHS DSF=1.3 UHSS DSF=1.3 sigy=2.4768 nrr=17.4187 nrs=26.9564
$#     pid     secid       mid     eosid      hgid      grav    adpopt      tmid
        67         0         0                   0         0                    
*PART
$#                                                                         title
Solid welds DSF=2 PHS DSF=1.3 UHSS DSF=1.3 sigy=1.5 nrr=9.69167 nrs=12.46776
$#     pid     secid       mid     eosid      hgid      grav    adpopt      tmid
        68         0         0                   0         0                    
*PART
$#                                                                         title
Solid welds DSF=2 PHS DSF=1.3 UHSS DSF=1.3 sigy=2.4768 nrr=15.68 nrs=20.76
$#     pid     secid       mid     eosid      hgid      grav    adpopt      tmid
        69         0         0                   0         0                    
*PART
$#                                                                         title
Solid welds DSF=2 PHS DSF=1.3 UHSS DSF=1.3 sigy=3.136 nrr=13.12922 nrs=40.69897
$#     pid     secid       mid     eosid      hgid      grav    adpopt      tmid
        70         0         0                   0         0                    
*PART
$#                                                                         title
Solid welds DSF=2 PHS DSF=1.3 UHSS DSF=1.3 sigy=2.592 nrr=11.396 nrs=43.92199
$#     pid     secid       mid     eosid      hgid      grav    adpopt      tmid
        71         0         0                   0         0                    
*PART
$#                                                                         title
Solid welds DSF=2 PHS DSF=1.3 UHSS DSF=1.3 sigy=2.592 nrr=18.0928 nrs=33.1972
$#     pid     secid       mid     eosid      hgid      grav    adpopt      tmid
        72         0         0                   0         0                    
*PART
$#                                                                         title
Solid welds DSF=2 PHS DSF=1.3 UHSS DSF=1.3 sigy=2.16 nrr=18.0928 nrs=33.1972
$#     pid     secid       mid     eosid      hgid      grav    adpopt      tmid
        73         0         0                   0         0                    
*PART
$#                                                                         title
Solid welds DSF=2 PHS DSF=1.3 UHSS DSF=1.3 sigy=2.16 nrr=10.80594 nrs=31.54411
$#     pid     secid       mid     eosid      hgid      grav    adpopt      tmid
        74         0         0                   0         0                    
*PART
$#                                                                         title
Solid welds DSF=2 PHS DSF=1.3 UHSS DSF=1.3 sigy=2.592 nrr=11.396 nrs=33.1972
$#     pid     secid       mid     eosid      hgid      grav    adpopt      tmid
        75         0         0                   0         0                    
*PART
$#                                                                         title
Solid welds DSF=2 PHS DSF=1.3 UHSS DSF=1.3 sigy=2.94 nrr=25.66 nrs=27.78
$#     pid     secid       mid     eosid      hgid      grav    adpopt      tmid
        76         0         0                   0         0                    
*PART
$#                                                                         title
Solid welds DSF=2 PHS DSF=1.3 UHSS DSF=1.3 sigy=2.592 nrr=11.396 nrs=43.76788
$#     pid     secid       mid     eosid      hgid      grav    adpopt      tmid
        77         0         0                   0         0                    
*PART
$#                                                                         title
Solid welds DSF=2 PHS DSF=1.3 UHSS DSF=1.3 sigy=2.592 nrr=18.0928 nrs=33.1972
$#     pid     secid       mid     eosid      hgid      grav    adpopt      tmid
        78         0         0                   0         0                    
*PART
$#                                                                         title
Solid welds DSF=2 PHS DSF=1.3 UHSS DSF=1.3 sigy=2.16 nrr=18.0928 nrs=24.98
$#     pid     secid       mid     eosid      hgid      grav    adpopt      tmid
        79         0         0                   0         0                    
*PART
$#                                                                         title
Solid welds DSF=2 PHS DSF=1.3 UHSS DSF=1.3 sigy=2.175 nrr=25.66 nrs=27.78
$#     pid     secid       mid     eosid      hgid      grav    adpopt      tmid
        80         0         0                   0         0                    
*PART
$#                                                                         title
Solid welds DSF=2 PHS DSF=1.3 UHSS DSF=1.3 sigy=2.175 nrr=18.0928 nrs=33.1972
$#     pid     secid       mid     eosid      hgid      grav    adpopt      tmid
        81         0         0                   0         0                    
*PART
$#                                                                         title
Solid welds DSF=2 PHS DSF=1.3 UHSS DSF=1.3 sigy=2.145 nrr=18.0928 nrs=33.1972
$#     pid     secid       mid     eosid      hgid      grav    adpopt      tmid
        82         0         0                   0         0                    
*PART
$#                                                                         title
Solid welds DSF=2 PHS DSF=1.3 UHSS DSF=1.3 sigy=2.145 nrr=12.46 nrs=15.74
$#     pid     secid       mid     eosid      hgid      grav    adpopt      tmid
        83         0         0                   0         0                    
*PART
$#                                                                         title
Solid welds DSF=2 PHS DSF=1.3 UHSS DSF=1.3 sigy=2.175 nrr=21.68 nrs=24.98
$#     pid     secid       mid     eosid      hgid      grav    adpopt      tmid
        84         0         0                   0         0                    
*PART
$#                                                                         title
Solid welds DSF=2 PHS DSF=1.3 UHSS DSF=1.3 sigy=2.145 nrr=25.66 nrs=27.78
$#     pid     secid       mid     eosid      hgid      grav    adpopt      tmid
        85         0         0                   0         0                    
*PART
$#                                                                         title
Solid welds DSF=2 PHS DSF=1.3 UHSS DSF=1.3 sigy=2.145 nrr=18.0928 nrs=33.1972
$#     pid     secid       mid     eosid      hgid      grav    adpopt      tmid
        86         0         0                   0         0                    
*PART
$#                                                                         title
Solid welds DSF=2 PHS DSF=1.3 UHSS DSF=1.3 sigy=2.16 nrr=31.32748 nrs=50.17768
$#     pid     secid       mid     eosid      hgid      grav    adpopt      tmid
        87         0         0                   0         0                    
*PART
$#                                                                         title
Solid welds DSF=2 PHS DSF=1.3 UHSS DSF=1.3 sigy=2.895 nrr=18.0928 nrs=33.1972
$#     pid     secid       mid     eosid      hgid      grav    adpopt      tmid
        88         0         0                   0         0                    
*PART
$#                                                                         title
Solid welds DSF=2 PHS DSF=1.3 UHSS DSF=1.3 sigy=2.895 nrr=19.56332 nrs=35.08392
$#     pid     secid       mid     eosid      hgid      grav    adpopt      tmid
        89         0         0                   0         0                    
*PART
$#                                                                         title
Solid welds DSF=2 PHS DSF=1.3 UHSS DSF=1.3 sigy=2.175 nrr=18.0928 nrs=24.98
$#     pid     secid       mid     eosid      hgid      grav    adpopt      tmid
        90         0         0                   0         0                    
*PART
$#                                                                         title
Solid welds DSF=2 PHS DSF=1.3 UHSS DSF=1.3 sigy=2.16 nrr=18.0928 nrs=27.78
$#     pid     secid       mid     eosid      hgid      grav    adpopt      tmid
        91         0         0                   0         0                    
*PART
$#                                                                         title
Solid welds DSF=2 PHS DSF=1.3 UHSS DSF=1.3 sigy=2.205 nrr=18.0928 nrs=24.98
$#     pid     secid       mid     eosid      hgid      grav    adpopt      tmid
        92         0         0                   0         0                    
*PART
$#                                                                         title
Solid welds DSF=2 PHS DSF=1.3 UHSS DSF=1.3 sigy=3.075 nrr=10.80594 nrs=31.54411
$#     pid     secid       mid     eosid      hgid      grav    adpopt      tmid
        93         0         0                   0         0                    
*PART
$#                                                                         title
Solid welds DSF=2 PHS DSF=1.3 UHSS DSF=1.3 sigy=3.075 nrr=25.66 nrs=27.78
$#     pid     secid       mid     eosid      hgid      grav    adpopt      tmid
        94         0         0                   0         0                    
*PART
$#                                                                         title
Solid welds DSF=2 PHS DSF=1.3 UHSS DSF=1.3 sigy=2.985 nrr=10.80594 nrs=31.54411
$#     pid     secid       mid     eosid      hgid      grav    adpopt      tmid
        95         0         0                   0         0                    
*PART
$#                                                                         title
Solid welds DSF=2 PHS DSF=1.3 UHSS DSF=1.3 sigy=2.985 nrr=25.66 nrs=27.78
$#     pid     secid       mid     eosid      hgid      grav    adpopt      tmid
        96         0         0                   0         0                    
*PART
$#                                                                         title
Solid welds DSF=2 PHS DSF=1.3 UHSS DSF=1.3 sigy=2.145 nrr=13.68124 nrs=27.53704
$#     pid     secid       mid     eosid      hgid      grav    adpopt      tmid
        97         0         0                   0         0                    
*PART
$#                                                                         title
Solid welds DSF=2 PHS DSF=1.3 UHSS DSF=1.3 sigy=1.575 nrr=5.60668 nrs=7.10124
$#     pid     secid       mid     eosid      hgid      grav    adpopt      tmid
        98         0         0                   0         0                    
*PART
$#                                                                         title
Solid welds DSF=2 PHS DSF=1.3 UHSS DSF=1.3 sigy=2.19 nrr=18.0928 nrs=24.98
$#     pid     secid       mid     eosid      hgid      grav    adpopt      tmid
        99         0         0                   0         0                    
*MAT_SPOTWELD_TITLE
Material (similar data) with DSF=2, PHS DSF=1.3, UHSS DSF=1.3
$#     mid        ro         e        pr      sigy        eh        dt     tfail
         27.80000E-6     207.0      0.29     3.136      29.4       0.0       0.0
$#   efail       nrr       nrs       nrt       mrr       mss       mtt        nf
            10.80595  31.54411  31.54411                                    15.0
*MAT_SPOTWELD_TITLE
Material (similar data) with DSF=2, PHS DSF=1.3, UHSS DSF=1.3
$#     mid        ro         e        pr      sigy        eh        dt     tfail
         37.80000E-6     207.0      0.29     3.136      29.4       0.0       0.0
$#   efail       nrr       nrs       nrt       mrr       mss       mtt        nf
            10.80595  31.54411  31.54411                                    15.0
*MAT_SPOTWELD_TITLE
Material (similar data) with DSF=2, PHS DSF=1.3, UHSS DSF=1.3
$#     mid        ro         e        pr      sigy        eh        dt     tfail
         47.80000E-6     207.0      0.29     3.136      29.4       0.0       0.0
$#   efail       nrr       nrs       nrt       mrr       mss       mtt        nf
            10.80595  31.54411  31.54411                                    15.0
*MAT_SPOTWELD_TITLE
Material (similar data) with DSF=2, PHS DSF=1.3, UHSS DSF=1.3
$#     mid        ro         e        pr      sigy        eh        dt     tfail
         57.80000E-6     207.0      0.29    2.4768      21.6       0.0       0.0
$#   efail       nrr       nrs       nrt       mrr       mss       mtt        nf
             18.0646  29.10524  29.10524                                    15.0
*MAT_SPOTWELD_TITLE
Material (similar data) with DSF=2, PHS DSF=1.3, UHSS DSF=1.3
$#     mid        ro         e        pr      sigy        eh        dt     tfail
         67.80000E-6     207.0      0.29    2.4768      7.56       0.0       0.0
$#   efail       nrr       nrs       nrt       mrr       mss       mtt        nf
            12.73333   38.6008   38.6008                                    15.0
*MAT_SPOTWELD_TITLE
Material (similar data) with DSF=2, PHS DSF=1.3, UHSS DSF=1.3
$#     mid        ro         e        pr      sigy        eh        dt     tfail
         77.80000E-6     207.0      0.29      2.16      2.88       0.0       0.0
$#   efail       nrr       nrs       nrt       mrr       mss       mtt        nf
               27.66     29.18     29.18                                    15.0
*MAT_SPOTWELD_TITLE
Material (similar data) with DSF=2, PHS DSF=1.3, UHSS DSF=1.3
$#     mid        ro         e        pr      sigy        eh        dt     tfail
         87.80000E-6     207.0      0.29       0.6       0.7       0.0       0.0
$#   efail       nrr       nrs       nrt       mrr       mss       mtt        nf
             5.60668   7.10124   7.10124                                    15.0
*MAT_SPOTWELD_TITLE
Material (similar data) with DSF=2, PHS DSF=1.3, UHSS DSF=1.3
$#     mid        ro         e        pr      sigy        eh        dt     tfail
         97.80000E-6     207.0      0.29      2.16      21.6       0.0       0.0
$#   efail       nrr       nrs       nrt       mrr       mss       mtt        nf
            14.04464  24.46036  24.46036                                    15.0
*MAT_SPOTWELD_TITLE
Material (similar data) with DSF=2, PHS DSF=1.3, UHSS DSF=1.3
$#     mid        ro         e        pr      sigy        eh        dt     tfail
        107.80000E-6     207.0      0.29       1.5       2.0       0.0       0.0
$#   efail       nrr       nrs       nrt       mrr       mss       mtt        nf
               11.54     17.94     17.94                                    15.0
*MAT_SPOTWELD_TITLE
Material (similar data) with DSF=2, PHS DSF=1.3, UHSS DSF=1.3
$#     mid        ro         e        pr      sigy        eh        dt     tfail
        117.80000E-6     207.0      0.29    2.4768      7.56       0.0       0.0
$#   efail       nrr       nrs       nrt       mrr       mss       mtt        nf
            12.73333  29.10524  29.10524                                    15.0
*MAT_SPOTWELD_TITLE
Material (similar data) with DSF=2, PHS DSF=1.3, UHSS DSF=1.3
$#     mid        ro         e        pr      sigy        eh        dt     tfail
        127.80000E-6     207.0      0.29      2.94      0.98       0.0       0.0
$#   efail       nrr       nrs       nrt       mrr       mss       mtt        nf
               28.96     30.74     30.74                                    15.0
*MAT_SPOTWELD_TITLE
Material (similar data) with DSF=2, PHS DSF=1.3, UHSS DSF=1.3
$#     mid        ro         e        pr      sigy        eh        dt     tfail
        137.80000E-6     207.0      0.29     3.136      3.92       0.0       0.0
$#   efail       nrr       nrs       nrt       mrr       mss       mtt        nf
            10.36425  31.58207  31.58207                                    15.0
*MAT_SPOTWELD_TITLE
Material (similar data) with DSF=2, PHS DSF=1.3, UHSS DSF=1.3
$#     mid        ro         e        pr      sigy        eh        dt     tfail
        147.80000E-6     207.0      0.29       1.5       0.5       0.0       0.0
$#   efail       nrr       nrs       nrt       mrr       mss       mtt        nf
               12.46     15.74     15.74                                    15.0
*MAT_SPOTWELD_TITLE
Material (similar data) with DSF=2, PHS DSF=1.3, UHSS DSF=1.3
$#     mid        ro         e        pr      sigy        eh        dt     tfail
        157.80000E-6     207.0      0.29      2.94      29.4       0.0       0.0
$#   efail       nrr       nrs       nrt       mrr       mss       mtt        nf
            10.80595  31.54411  31.54411                                    15.0
*MAT_SPOTWELD_TITLE
Material (similar data) with DSF=2, PHS DSF=1.3, UHSS DSF=1.3
$#     mid        ro         e        pr      sigy        eh        dt     tfail
        167.80000E-6     207.0      0.29      2.94      3.92       0.0       0.0
$#   efail       nrr       nrs       nrt       mrr       mss       mtt        nf
            20.88835      30.6      30.6                                    15.0
*MAT_SPOTWELD_TITLE
Material (similar data) with DSF=2, PHS DSF=1.3, UHSS DSF=1.3
$#     mid        ro         e        pr      sigy        eh        dt     tfail
        177.80000E-6     207.0      0.29      2.94      3.92       0.0       0.0
$#   efail       nrr       nrs       nrt       mrr       mss       mtt        nf
            10.80595     26.38     26.38                                    15.0
*MAT_SPOTWELD_TITLE
Material (similar data) with DSF=2, PHS DSF=1.3, UHSS DSF=1.3
$#     mid        ro         e        pr      sigy        eh        dt     tfail
        187.80000E-6     207.0      0.29    2.4768      7.56       0.0       0.0
$#   efail       nrr       nrs       nrt       mrr       mss       mtt        nf
            10.80595  31.54411  31.54411                                    15.0
*MAT_SPOTWELD_TITLE
Material (similar data) with DSF=2, PHS DSF=1.3, UHSS DSF=1.3
$#     mid        ro         e        pr      sigy        eh        dt     tfail
        197.80000E-6     207.0      0.29      1.72      5.25       0.0       0.0
$#   efail       nrr       nrs       nrt       mrr       mss       mtt        nf
              7.9814  21.93856  21.93856                                    15.0
*MAT_SPOTWELD_TITLE
Material (similar data) with DSF=2, PHS DSF=1.3, UHSS DSF=1.3
$#     mid        ro         e        pr      sigy        eh        dt     tfail
        207.80000E-6     207.0      0.29      2.16      2.88       0.0       0.0
$#   efail       nrr       nrs       nrt       mrr       mss       mtt        nf
               11.54     17.94     17.94                                    15.0
*MAT_SPOTWELD_TITLE
Material (similar data) with DSF=2, PHS DSF=1.3, UHSS DSF=1.3
$#     mid        ro         e        pr      sigy        eh        dt     tfail
        217.80000E-6     207.0      0.29    2.4768     1.008       0.0       0.0
$#   efail       nrr       nrs       nrt       mrr       mss       mtt        nf
             4.08499   5.36652   5.36652                                    15.0
*MAT_SPOTWELD_TITLE
Material (similar data) with DSF=2, PHS DSF=1.3, UHSS DSF=1.3
$#     mid        ro         e        pr      sigy        eh        dt     tfail
        227.80000E-6     207.0      0.29    2.4768      7.56       0.0       0.0
$#   efail       nrr       nrs       nrt       mrr       mss       mtt        nf
            12.73333  29.82688  29.82688                                    15.0
*MAT_SPOTWELD_TITLE
Material (similar data) with DSF=2, PHS DSF=1.3, UHSS DSF=1.3
$#     mid        ro         e        pr      sigy        eh        dt     tfail
        237.80000E-6     207.0      0.29       1.5       0.7       0.0       0.0
$#   efail       nrr       nrs       nrt       mrr       mss       mtt        nf
              7.6356    9.4142    9.4142                                    15.0
*MAT_SPOTWELD_TITLE
Material (similar data) with DSF=2, PHS DSF=1.3, UHSS DSF=1.3
$#     mid        ro         e        pr      sigy        eh        dt     tfail
        247.80000E-6     207.0      0.29      2.16      2.88       0.0       0.0
$#   efail       nrr       nrs       nrt       mrr       mss       mtt        nf
            14.04464  24.46036  24.46036                                    15.0
*MAT_SPOTWELD_TITLE
Material (similar data) with DSF=2, PHS DSF=1.3, UHSS DSF=1.3
$#     mid        ro         e        pr      sigy        eh        dt     tfail
        257.80000E-6     207.0      0.29      2.16     1.008       0.0       0.0
$#   efail       nrr       nrs       nrt       mrr       mss       mtt        nf
            8.650061  10.57068  10.57068                                    15.0
*MAT_SPOTWELD_TITLE
Material (similar data) with DSF=2, PHS DSF=1.3, UHSS DSF=1.3
$#     mid        ro         e        pr      sigy        eh        dt     tfail
        267.80000E-6     207.0      0.29      2.16     1.008       0.0       0.0
$#   efail       nrr       nrs       nrt       mrr       mss       mtt        nf
            14.25674  17.67192  17.67192                                    15.0
*MAT_SPOTWELD_TITLE
Material (similar data) with DSF=2, PHS DSF=1.3, UHSS DSF=1.3
$#     mid        ro         e        pr      sigy        eh        dt     tfail
        277.80000E-6     207.0      0.29      2.94      29.4       0.0       0.0
$#   efail       nrr       nrs       nrt       mrr       mss       mtt        nf
            22.34595  37.50512  37.50512                                    15.0
*MAT_SPOTWELD_TITLE
Material (similar data) with DSF=2, PHS DSF=1.3, UHSS DSF=1.3
$#     mid        ro         e        pr      sigy        eh        dt     tfail
        287.80000E-6     207.0      0.29      2.16      21.6       0.0       0.0
$#   efail       nrr       nrs       nrt       mrr       mss       mtt        nf
            13.68124  27.53704  27.53704                                    15.0
*MAT_SPOTWELD_TITLE
Material (similar data) with DSF=2, PHS DSF=1.3, UHSS DSF=1.3
$#     mid        ro         e        pr      sigy        eh        dt     tfail
        297.80000E-6     207.0      0.29    2.4768      7.56       0.0       0.0
$#   efail       nrr       nrs       nrt       mrr       mss       mtt        nf
            12.73333  24.46036  24.46036                                    15.0
*MAT_SPOTWELD_TITLE
Material (similar data) with DSF=2, PHS DSF=1.3, UHSS DSF=1.3
$#     mid        ro         e        pr      sigy        eh        dt     tfail
        307.80000E-6     207.0      0.29    2.4768      7.56       0.0       0.0
$#   efail       nrr       nrs       nrt       mrr       mss       mtt        nf
            14.04464  24.46036  24.46036                                    15.0
*MAT_SPOTWELD_TITLE
Material (similar data) with DSF=2, PHS DSF=1.3, UHSS DSF=1.3
$#     mid        ro         e        pr      sigy        eh        dt     tfail
        317.80000E-6     207.0      0.29    2.4768      21.6       0.0       0.0
$#   efail       nrr       nrs       nrt       mrr       mss       mtt        nf
            14.04464  24.46036  24.46036                                    15.0
*MAT_SPOTWELD_TITLE
Material (similar data) with DSF=2, PHS DSF=1.3, UHSS DSF=1.3
$#     mid        ro         e        pr      sigy        eh        dt     tfail
        327.80000E-6     207.0      0.29      2.16      21.6       0.0       0.0
$#   efail       nrr       nrs       nrt       mrr       mss       mtt        nf
             17.4187   26.9564   26.9564                                    15.0
*MAT_SPOTWELD_TITLE
Material (similar data) with DSF=2, PHS DSF=1.3, UHSS DSF=1.3
$#     mid        ro         e        pr      sigy        eh        dt     tfail
        337.80000E-6     207.0      0.29      2.16      0.72       0.0       0.0
$#   efail       nrr       nrs       nrt       mrr       mss       mtt        nf
               22.36     24.74     24.74                                    15.0
*MAT_SPOTWELD_TITLE
Material (similar data) with DSF=2, PHS DSF=1.3, UHSS DSF=1.3
$#     mid        ro         e        pr      sigy        eh        dt     tfail
        347.80000E-6     207.0      0.29      2.16      21.6       0.0       0.0
$#   efail       nrr       nrs       nrt       mrr       mss       mtt        nf
             20.5874  33.61348  33.61348                                    15.0
*MAT_SPOTWELD_TITLE
Material (similar data) with DSF=2, PHS DSF=1.3, UHSS DSF=1.3
$#     mid        ro         e        pr      sigy        eh        dt     tfail
        357.80000E-6     207.0      0.29      2.16      0.72       0.0       0.0
$#   efail       nrr       nrs       nrt       mrr       mss       mtt        nf
               12.46     15.74     15.74                                    15.0
*MAT_SPOTWELD_TITLE
Material (similar data) with DSF=2, PHS DSF=1.3, UHSS DSF=1.3
$#     mid        ro         e        pr      sigy        eh        dt     tfail
        367.80000E-6     207.0      0.29    2.4768      2.88       0.0       0.0
$#   efail       nrr       nrs       nrt       mrr       mss       mtt        nf
            12.73333     20.76     20.76                                    15.0
*MAT_SPOTWELD_TITLE
Material (similar data) with DSF=2, PHS DSF=1.3, UHSS DSF=1.3
$#     mid        ro         e        pr      sigy        eh        dt     tfail
        377.80000E-6     207.0      0.29    2.4768      2.88       0.0       0.0
$#   efail       nrr       nrs       nrt       mrr       mss       mtt        nf
               11.54     17.94     17.94                                    15.0
*MAT_SPOTWELD_TITLE
Material (similar data) with DSF=2, PHS DSF=1.3, UHSS DSF=1.3
$#     mid        ro         e        pr      sigy        eh        dt     tfail
        387.80000E-6     207.0      0.29    2.4768      2.88       0.0       0.0
$#   efail       nrr       nrs       nrt       mrr       mss       mtt        nf
            12.73333   38.6008   38.6008                                    15.0
*MAT_SPOTWELD_TITLE
Material (similar data) with DSF=2, PHS DSF=1.3, UHSS DSF=1.3
$#     mid        ro         e        pr      sigy        eh        dt     tfail
        397.80000E-6     207.0      0.29      1.72       0.7       0.0       0.0
$#   efail       nrr       nrs       nrt       mrr       mss       mtt        nf
             4.08499   5.36652   5.36652                                    15.0
*MAT_SPOTWELD_TITLE
Material (similar data) with DSF=2, PHS DSF=1.3, UHSS DSF=1.3
$#     mid        ro         e        pr      sigy        eh        dt     tfail
        407.80000E-6     207.0      0.29    2.4768      7.56       0.0       0.0
$#   efail       nrr       nrs       nrt       mrr       mss       mtt        nf
            12.73333  34.47176  34.47176                                    15.0
*MAT_SPOTWELD_TITLE
Material (similar data) with DSF=2, PHS DSF=1.3, UHSS DSF=1.3
$#     mid        ro         e        pr      sigy        eh        dt     tfail
        417.80000E-6     207.0      0.29      2.16      2.88       0.0       0.0
$#   efail       nrr       nrs       nrt       mrr       mss       mtt        nf
               29.66      30.6      30.6                                    15.0
*MAT_SPOTWELD_TITLE
Material (similar data) with DSF=2, PHS DSF=1.3, UHSS DSF=1.3
$#     mid        ro         e        pr      sigy        eh        dt     tfail
        427.80000E-6     207.0      0.29      2.94      0.98       0.0       0.0
$#   efail       nrr       nrs       nrt       mrr       mss       mtt        nf
               25.66     27.74     27.74                                    15.0
*MAT_SPOTWELD_TITLE
Material (similar data) with DSF=2, PHS DSF=1.3, UHSS DSF=1.3
$#     mid        ro         e        pr      sigy        eh        dt     tfail
        437.80000E-6     207.0      0.29      2.16      2.88       0.0       0.0
$#   efail       nrr       nrs       nrt       mrr       mss       mtt        nf
            10.80595  31.54411  31.54411                                    15.0
*MAT_SPOTWELD_TITLE
Material (similar data) with DSF=2, PHS DSF=1.3, UHSS DSF=1.3
$#     mid        ro         e        pr      sigy        eh        dt     tfail
        447.80000E-6     207.0      0.29       1.5      15.0       0.0       0.0
$#   efail       nrr       nrs       nrt       mrr       mss       mtt        nf
            10.80595  31.54411  31.54411                                    15.0
*MAT_SPOTWELD_TITLE
Material (similar data) with DSF=2, PHS DSF=1.3, UHSS DSF=1.3
$#     mid        ro         e        pr      sigy        eh        dt     tfail
        457.80000E-6     207.0      0.29    2.4768      2.88       0.0       0.0
$#   efail       nrr       nrs       nrt       mrr       mss       mtt        nf
            12.73333     29.18     29.18                                    15.0
*MAT_SPOTWELD_TITLE
Material (similar data) with DSF=2, PHS DSF=1.3, UHSS DSF=1.3
$#     mid        ro         e        pr      sigy        eh        dt     tfail
        467.80000E-6     207.0      0.29       1.5       2.0       0.0       0.0
$#   efail       nrr       nrs       nrt       mrr       mss       mtt        nf
            10.80595     17.94     17.94                                    15.0
*MAT_SPOTWELD_TITLE
Material (similar data) with DSF=2, PHS DSF=1.3, UHSS DSF=1.3
$#     mid        ro         e        pr      sigy        eh        dt     tfail
        477.80000E-6     207.0      0.29      2.16      0.72       0.0       0.0
$#   efail       nrr       nrs       nrt       mrr       mss       mtt        nf
            10.80595     20.24     20.24                                    15.0
*MAT_SPOTWELD_TITLE
Material (similar data) with DSF=2, PHS DSF=1.3, UHSS DSF=1.3
$#     mid        ro         e        pr      sigy        eh        dt     tfail
        487.80000E-6     207.0      0.29      2.94      3.92       0.0       0.0
$#   efail       nrr       nrs       nrt       mrr       mss       mtt        nf
               31.64      32.0      32.0                                    15.0
*MAT_SPOTWELD_TITLE
Material (similar data) with DSF=2, PHS DSF=1.3, UHSS DSF=1.3
$#     mid        ro         e        pr      sigy        eh        dt     tfail
        497.80000E-6     207.0      0.29       1.5       0.7       0.0       0.0
$#   efail       nrr       nrs       nrt       mrr       mss       mtt        nf
             5.60668   7.10124   7.10124                                    15.0
*MAT_SPOTWELD_TITLE
Material (similar data) with DSF=2, PHS DSF=1.3, UHSS DSF=1.3
$#     mid        ro         e        pr      sigy        eh        dt     tfail
        507.80000E-6     207.0      0.29      2.94      3.92       0.0       0.0
$#   efail       nrr       nrs       nrt       mrr       mss       mtt        nf
            20.88835      32.0      32.0                                    15.0
*MAT_SPOTWELD_TITLE
Material (similar data) with DSF=2, PHS DSF=1.3, UHSS DSF=1.3
$#     mid        ro         e        pr      sigy        eh        dt     tfail
        517.80000E-6     207.0      0.29       1.5      15.0       0.0       0.0
$#   efail       nrr       nrs       nrt       mrr       mss       mtt        nf
             10.0824  23.88438  23.88438                                    15.0
*MAT_SPOTWELD_TITLE
Material (similar data) with DSF=2, PHS DSF=1.3, UHSS DSF=1.3
$#     mid        ro         e        pr      sigy        eh        dt     tfail
        527.80000E-6     207.0      0.29      2.94      0.98       0.0       0.0
$#   efail       nrr       nrs       nrt       mrr       mss       mtt        nf
            10.80595     27.74     27.74                                    15.0
*MAT_SPOTWELD_TITLE
Material (similar data) with DSF=2, PHS DSF=1.3, UHSS DSF=1.3
$#     mid        ro         e        pr      sigy        eh        dt     tfail
        537.80000E-6     207.0      0.29    2.4768      0.72       0.0       0.0
$#   efail       nrr       nrs       nrt       mrr       mss       mtt        nf
               15.76     18.74     18.74                                    15.0
*MAT_SPOTWELD_TITLE
Material (similar data) with DSF=2, PHS DSF=1.3, UHSS DSF=1.3
$#     mid        ro         e        pr      sigy        eh        dt     tfail
        547.80000E-6     207.0      0.29      2.94      3.92       0.0       0.0
$#   efail       nrr       nrs       nrt       mrr       mss       mtt        nf
            20.88835     40.44     40.44                                    15.0
*MAT_SPOTWELD_TITLE
Material (similar data) with DSF=2, PHS DSF=1.3, UHSS DSF=1.3
$#     mid        ro         e        pr      sigy        eh        dt     tfail
        557.80000E-6     207.0      0.29      2.94      29.4       0.0       0.0
$#   efail       nrr       nrs       nrt       mrr       mss       mtt        nf
            20.88835   45.2884   45.2884                                    15.0
*MAT_SPOTWELD_TITLE
Material (similar data) with DSF=2, PHS DSF=1.3, UHSS DSF=1.3
$#     mid        ro         e        pr      sigy        eh        dt     tfail
        567.80000E-6     207.0      0.29      2.94      3.92       0.0       0.0
$#   efail       nrr       nrs       nrt       mrr       mss       mtt        nf
            10.80595      30.6      30.6                                    15.0
*MAT_SPOTWELD_TITLE
Material (similar data) with DSF=2, PHS DSF=1.3, UHSS DSF=1.3
$#     mid        ro         e        pr      sigy        eh        dt     tfail
        577.80000E-6     207.0      0.29      2.94      0.98       0.0       0.0
$#   efail       nrr       nrs       nrt       mrr       mss       mtt        nf
            20.88835     27.74     27.74                                    15.0
*MAT_SPOTWELD_TITLE
Material (similar data) with DSF=2, PHS DSF=1.3, UHSS DSF=1.3
$#     mid        ro         e        pr      sigy        eh        dt     tfail
        587.80000E-6     207.0      0.29      2.94      29.4       0.0       0.0
$#   efail       nrr       nrs       nrt       mrr       mss       mtt        nf
             10.0824  23.88438  23.88438                                    15.0
*MAT_SPOTWELD_TITLE
Material (similar data) with DSF=2, PHS DSF=1.3, UHSS DSF=1.3
$#     mid        ro         e        pr      sigy        eh        dt     tfail
        597.80000E-6     207.0      0.29      2.94      29.4       0.0       0.0
$#   efail       nrr       nrs       nrt       mrr       mss       mtt        nf
            20.88835  41.39676  41.39676                                    15.0
*MAT_SPOTWELD_TITLE
Material (similar data) with DSF=2, PHS DSF=1.3, UHSS DSF=1.3
$#     mid        ro         e        pr      sigy        eh        dt     tfail
        607.80000E-6     207.0      0.29      2.16      2.88       0.0       0.0
$#   efail       nrr       nrs       nrt       mrr       mss       mtt        nf
            13.68124  27.53704  27.53704                                    15.0
*MAT_SPOTWELD_TITLE
Material (similar data) with DSF=2, PHS DSF=1.3, UHSS DSF=1.3
$#     mid        ro         e        pr      sigy        eh        dt     tfail
        617.80000E-6     207.0      0.29      2.94      3.92       0.0       0.0
$#   efail       nrr       nrs       nrt       mrr       mss       mtt        nf
            20.88835     36.22     36.22                                    15.0
*MAT_SPOTWELD_TITLE
Material (similar data) with DSF=2, PHS DSF=1.3, UHSS DSF=1.3
$#     mid        ro         e        pr      sigy        eh        dt     tfail
        627.80000E-6     207.0      0.29      2.97      29.7       0.0       0.0
$#   efail       nrr       nrs       nrt       mrr       mss       mtt        nf
            10.80595  31.54411  31.54411                                    15.0
*MAT_SPOTWELD_TITLE
Material (similar data) with DSF=2, PHS DSF=1.3, UHSS DSF=1.3
$#     mid        ro         e        pr      sigy        eh        dt     tfail
        637.80000E-6     207.0      0.29      2.97      3.96       0.0       0.0
$#   efail       nrr       nrs       nrt       mrr       mss       mtt        nf
            20.88835     40.44     40.44                                    15.0
*MAT_SPOTWELD_TITLE
Material (similar data) with DSF=2, PHS DSF=1.3, UHSS DSF=1.3
$#     mid        ro         e        pr      sigy        eh        dt     tfail
        647.80000E-6     207.0      0.29      2.16      0.72       0.0       0.0
$#   efail       nrr       nrs       nrt       mrr       mss       mtt        nf
            10.80595     23.24     23.24                                    15.0
*MAT_SPOTWELD_TITLE
Material (similar data) with DSF=2, PHS DSF=1.3, UHSS DSF=1.3
$#     mid        ro         e        pr      sigy        eh        dt     tfail
        657.80000E-6     207.0      0.29      2.94      0.98       0.0       0.0
$#   efail       nrr       nrs       nrt       mrr       mss       mtt        nf
               28.96      30.6      30.6                                    15.0
*MAT_SPOTWELD_TITLE
Material (similar data) with DSF=2, PHS DSF=1.3, UHSS DSF=1.3
$#     mid        ro         e        pr      sigy        eh        dt     tfail
        667.80000E-6     207.0      0.29      2.16      0.72       0.0       0.0
$#   efail       nrr       nrs       nrt       mrr       mss       mtt        nf
            10.80595     21.74     21.74                                    15.0
*MAT_SPOTWELD_TITLE
Material (similar data) with DSF=2, PHS DSF=1.3, UHSS DSF=1.3
$#     mid        ro         e        pr      sigy        eh        dt     tfail
        677.80000E-6     207.0      0.29    2.4768     1.008       0.0       0.0
$#   efail       nrr       nrs       nrt       mrr       mss       mtt        nf
            8.650061  10.57068  10.57068                                    15.0
*MAT_SPOTWELD_TITLE
Material (similar data) with DSF=2, PHS DSF=1.3, UHSS DSF=1.3
$#     mid        ro         e        pr      sigy        eh        dt     tfail
        687.80000E-6     207.0      0.29    2.4768      7.56       0.0       0.0
$#   efail       nrr       nrs       nrt       mrr       mss       mtt        nf
             17.4187   26.9564   26.9564                                    15.0
*MAT_SPOTWELD_TITLE
Material (similar data) with DSF=2, PHS DSF=1.3, UHSS DSF=1.3
$#     mid        ro         e        pr      sigy        eh        dt     tfail
        697.80000E-6     207.0      0.29       1.5       0.7       0.0       0.0
$#   efail       nrr       nrs       nrt       mrr       mss       mtt        nf
            9.691669  12.46776  12.46776                                    15.0
*MAT_SPOTWELD_TITLE
Material (similar data) with DSF=2, PHS DSF=1.3, UHSS DSF=1.3
$#     mid        ro         e        pr      sigy        eh        dt     tfail
        707.80000E-6     207.0      0.29    2.4768      2.88       0.0       0.0
$#   efail       nrr       nrs       nrt       mrr       mss       mtt        nf
               15.68     20.76     20.76                                    15.0
*MAT_SPOTWELD_TITLE
Material (similar data) with DSF=2, PHS DSF=1.3, UHSS DSF=1.3
$#     mid        ro         e        pr      sigy        eh        dt     tfail
        717.80000E-6     207.0      0.29     3.136      29.4       0.0       0.0
$#   efail       nrr       nrs       nrt       mrr       mss       mtt        nf
            13.12922  40.69897  40.69897                                    15.0
*MAT_SPOTWELD_TITLE
Material (similar data) with DSF=2, PHS DSF=1.3, UHSS DSF=1.3
$#     mid        ro         e        pr      sigy        eh        dt     tfail
        727.80000E-6     207.0      0.29     2.592      0.72       0.0       0.0
$#   efail       nrr       nrs       nrt       mrr       mss       mtt        nf
              11.396    43.922    43.922                                    15.0
*MAT_SPOTWELD_TITLE
Material (similar data) with DSF=2, PHS DSF=1.3, UHSS DSF=1.3
$#     mid        ro         e        pr      sigy        eh        dt     tfail
        737.80000E-6     207.0      0.29     2.592      21.6       0.0       0.0
$#   efail       nrr       nrs       nrt       mrr       mss       mtt        nf
             18.0928   33.1972   33.1972                                    15.0
*MAT_SPOTWELD_TITLE
Material (similar data) with DSF=2, PHS DSF=1.3, UHSS DSF=1.3
$#     mid        ro         e        pr      sigy        eh        dt     tfail
        747.80000E-6     207.0      0.29      2.16      21.6       0.0       0.0
$#   efail       nrr       nrs       nrt       mrr       mss       mtt        nf
             18.0928   33.1972   33.1972                                    15.0
*MAT_SPOTWELD_TITLE
Material (similar data) with DSF=2, PHS DSF=1.3, UHSS DSF=1.3
$#     mid        ro         e        pr      sigy        eh        dt     tfail
        757.80000E-6     207.0      0.29      2.16      21.6       0.0       0.0
$#   efail       nrr       nrs       nrt       mrr       mss       mtt        nf
            10.80595  31.54411  31.54411                                    15.0
*MAT_SPOTWELD_TITLE
Material (similar data) with DSF=2, PHS DSF=1.3, UHSS DSF=1.3
$#     mid        ro         e        pr      sigy        eh        dt     tfail
        767.80000E-6     207.0      0.29     2.592      0.72       0.0       0.0
$#   efail       nrr       nrs       nrt       mrr       mss       mtt        nf
              11.396   33.1972   33.1972                                    15.0
*MAT_SPOTWELD_TITLE
Material (similar data) with DSF=2, PHS DSF=1.3, UHSS DSF=1.3
$#     mid        ro         e        pr      sigy        eh        dt     tfail
        777.80000E-6     207.0      0.29      2.94      3.92       0.0       0.0
$#   efail       nrr       nrs       nrt       mrr       mss       mtt        nf
               25.66     27.78     27.78                                    15.0
*MAT_SPOTWELD_TITLE
Material (similar data) with DSF=2, PHS DSF=1.3, UHSS DSF=1.3
$#     mid        ro         e        pr      sigy        eh        dt     tfail
        787.80000E-6     207.0      0.29     2.592      0.72       0.0       0.0
$#   efail       nrr       nrs       nrt       mrr       mss       mtt        nf
              11.396  43.76788  43.76788                                    15.0
*MAT_SPOTWELD_TITLE
Material (similar data) with DSF=2, PHS DSF=1.3, UHSS DSF=1.3
$#     mid        ro         e        pr      sigy        eh        dt     tfail
        797.80000E-6     207.0      0.29     2.592     1.008       0.0       0.0
$#   efail       nrr       nrs       nrt       mrr       mss       mtt        nf
             18.0928   33.1972   33.1972                                    15.0
*MAT_SPOTWELD_TITLE
Material (similar data) with DSF=2, PHS DSF=1.3, UHSS DSF=1.3
$#     mid        ro         e        pr      sigy        eh        dt     tfail
        807.80000E-6     207.0      0.29      2.16      2.88       0.0       0.0
$#   efail       nrr       nrs       nrt       mrr       mss       mtt        nf
             18.0928     24.98     24.98                                    15.0
*MAT_SPOTWELD_TITLE
Material (similar data) with DSF=2, PHS DSF=1.3, UHSS DSF=1.3
$#     mid        ro         e        pr      sigy        eh        dt     tfail
        817.80000E-6     207.0      0.29     2.175       2.9       0.0       0.0
$#   efail       nrr       nrs       nrt       mrr       mss       mtt        nf
               25.66     27.78     27.78                                    15.0
*MAT_SPOTWELD_TITLE
Material (similar data) with DSF=2, PHS DSF=1.3, UHSS DSF=1.3
$#     mid        ro         e        pr      sigy        eh        dt     tfail
        827.80000E-6     207.0      0.29     2.175     21.75       0.0       0.0
$#   efail       nrr       nrs       nrt       mrr       mss       mtt        nf
             18.0928   33.1972   33.1972                                    15.0
*MAT_SPOTWELD_TITLE
Material (similar data) with DSF=2, PHS DSF=1.3, UHSS DSF=1.3
$#     mid        ro         e        pr      sigy        eh        dt     tfail
        837.80000E-6     207.0      0.29     2.145      2.86       0.0       0.0
$#   efail       nrr       nrs       nrt       mrr       mss       mtt        nf
             18.0928   33.1972   33.1972                                    15.0
*MAT_SPOTWELD_TITLE
Material (similar data) with DSF=2, PHS DSF=1.3, UHSS DSF=1.3
$#     mid        ro         e        pr      sigy        eh        dt     tfail
        847.80000E-6     207.0      0.29     2.145     0.715       0.0       0.0
$#   efail       nrr       nrs       nrt       mrr       mss       mtt        nf
               12.46     15.74     15.74                                    15.0
*MAT_SPOTWELD_TITLE
Material (similar data) with DSF=2, PHS DSF=1.3, UHSS DSF=1.3
$#     mid        ro         e        pr      sigy        eh        dt     tfail
        857.80000E-6     207.0      0.29     2.175       2.9       0.0       0.0
$#   efail       nrr       nrs       nrt       mrr       mss       mtt        nf
               21.68     24.98     24.98                                    15.0
*MAT_SPOTWELD_TITLE
Material (similar data) with DSF=2, PHS DSF=1.3, UHSS DSF=1.3
$#     mid        ro         e        pr      sigy        eh        dt     tfail
        867.80000E-6     207.0      0.29     2.145      2.86       0.0       0.0
$#   efail       nrr       nrs       nrt       mrr       mss       mtt        nf
               25.66     27.78     27.78                                    15.0
*MAT_SPOTWELD_TITLE
Material (similar data) with DSF=2, PHS DSF=1.3, UHSS DSF=1.3
$#     mid        ro         e        pr      sigy        eh        dt     tfail
        877.80000E-6     207.0      0.29     2.145     21.45       0.0       0.0
$#   efail       nrr       nrs       nrt       mrr       mss       mtt        nf
             18.0928   33.1972   33.1972                                    15.0
*MAT_SPOTWELD_TITLE
Material (similar data) with DSF=2, PHS DSF=1.3, UHSS DSF=1.3
$#     mid        ro         e        pr      sigy        eh        dt     tfail
        887.80000E-6     207.0      0.29      2.16      21.6       0.0       0.0
$#   efail       nrr       nrs       nrt       mrr       mss       mtt        nf
            31.32748  50.17768  50.17768                                    15.0
*MAT_SPOTWELD_TITLE
Material (similar data) with DSF=2, PHS DSF=1.3, UHSS DSF=1.3
$#     mid        ro         e        pr      sigy        eh        dt     tfail
        897.80000E-6     207.0      0.29     2.895     28.95       0.0       0.0
$#   efail       nrr       nrs       nrt       mrr       mss       mtt        nf
             18.0928   33.1972   33.1972                                    15.0
*MAT_SPOTWELD_TITLE
Material (similar data) with DSF=2, PHS DSF=1.3, UHSS DSF=1.3
$#     mid        ro         e        pr      sigy        eh        dt     tfail
        907.80000E-6     207.0      0.29     2.895     28.95       0.0       0.0
$#   efail       nrr       nrs       nrt       mrr       mss       mtt        nf
            19.56332  35.08392  35.08392                                    15.0
*MAT_SPOTWELD_TITLE
Material (similar data) with DSF=2, PHS DSF=1.3, UHSS DSF=1.3
$#     mid        ro         e        pr      sigy        eh        dt     tfail
        917.80000E-6     207.0      0.29     2.175       2.9       0.0       0.0
$#   efail       nrr       nrs       nrt       mrr       mss       mtt        nf
             18.0928     24.98     24.98                                    15.0
*MAT_SPOTWELD_TITLE
Material (similar data) with DSF=2, PHS DSF=1.3, UHSS DSF=1.3
$#     mid        ro         e        pr      sigy        eh        dt     tfail
        927.80000E-6     207.0      0.29      2.16      2.88       0.0       0.0
$#   efail       nrr       nrs       nrt       mrr       mss       mtt        nf
             18.0928     27.78     27.78                                    15.0
*MAT_SPOTWELD_TITLE
Material (similar data) with DSF=2, PHS DSF=1.3, UHSS DSF=1.3
$#     mid        ro         e        pr      sigy        eh        dt     tfail
        937.80000E-6     207.0      0.29     2.205      2.94       0.0       0.0
$#   efail       nrr       nrs       nrt       mrr       mss       mtt        nf
             18.0928     24.98     24.98                                    15.0
*MAT_SPOTWELD_TITLE
Material (similar data) with DSF=2, PHS DSF=1.3, UHSS DSF=1.3
$#     mid        ro         e        pr      sigy        eh        dt     tfail
        947.80000E-6     207.0      0.29     3.075     30.75       0.0       0.0
$#   efail       nrr       nrs       nrt       mrr       mss       mtt        nf
            10.80595  31.54411  31.54411                                    15.0
*MAT_SPOTWELD_TITLE
Material (similar data) with DSF=2, PHS DSF=1.3, UHSS DSF=1.3
$#     mid        ro         e        pr      sigy        eh        dt     tfail
        957.80000E-6     207.0      0.29     3.075       4.1       0.0       0.0
$#   efail       nrr       nrs       nrt       mrr       mss       mtt        nf
               25.66     27.78     27.78                                    15.0
*MAT_SPOTWELD_TITLE
Material (similar data) with DSF=2, PHS DSF=1.3, UHSS DSF=1.3
$#     mid        ro         e        pr      sigy        eh        dt     tfail
        967.80000E-6     207.0      0.29     2.985     29.85       0.0       0.0
$#   efail       nrr       nrs       nrt       mrr       mss       mtt        nf
            10.80595  31.54411  31.54411                                    15.0
*MAT_SPOTWELD_TITLE
Material (similar data) with DSF=2, PHS DSF=1.3, UHSS DSF=1.3
$#     mid        ro         e        pr      sigy        eh        dt     tfail
        977.80000E-6     207.0      0.29     2.985      3.98       0.0       0.0
$#   efail       nrr       nrs       nrt       mrr       mss       mtt        nf
               25.66     27.78     27.78                                    15.0
*MAT_SPOTWELD_TITLE
Material (similar data) with DSF=2, PHS DSF=1.3, UHSS DSF=1.3
$#     mid        ro         e        pr      sigy        eh        dt     tfail
        987.80000E-6     207.0      0.29     2.145     21.45       0.0       0.0
$#   efail       nrr       nrs       nrt       mrr       mss       mtt        nf
            13.68124  27.53704  27.53704                                    15.0
*MAT_SPOTWELD_TITLE
Material (similar data) with DSF=2, PHS DSF=1.3, UHSS DSF=1.3
$#     mid        ro         e        pr      sigy        eh        dt     tfail
        997.80000E-6     207.0      0.29     1.575     0.735       0.0       0.0
$#   efail       nrr       nrs       nrt       mrr       mss       mtt        nf
             5.60668   7.10124   7.10124                                    15.0
*MAT_SPOTWELD_TITLE
Material (similar data) with DSF=2, PHS DSF=1.3, UHSS DSF=1.3
$#     mid        ro         e        pr      sigy        eh        dt     tfail
       1007.80000E-6     207.0      0.29      2.19      2.92       0.0       0.0
$#   efail       nrr       nrs       nrt       mrr       mss       mtt        nf
             18.0928     24.98     24.98                                    15.0
*ELEMENT_SOLID (ten nodes format)
$#   eid     pid   
51507736      10
$#    n1      n2      n3      n4      n5      n6      n7      n8      n9     n10
5142907251429073514290745142907551429076514290775142907851429079                
51507756      73
5142922951429228514292315142923051429233514292325142923551429234                
51507777      14
5142938851429389514293905142939151429392514293935142939451429395                
51507778      14
5142939651429397514293985142939951429400514294015142940251429403                
51507783      16
5142943651429437514294385142943951429440514294415142944251429443                
51507806      17
5142960851429609514296105142961151429612514296135142961451429615                
51507819      17
5142971251429713514297145142971551429716514297175142971851429719                
51507820       5
5142972051429721514297225142972351429724514297255142972651429727                
51507821      18
5142972851429729514297305142973151429732514297335142973451429735                
51507850      21
5142994451429945514299465142994751429948514299495142995051429951                
51507851      20
$ ... 2017 like lines cut
*NODE
$#   nid               x               y               z      tc      rc  
51428984        2042.283       -785.4561        799.6968                
51428985        2042.283       -785.4561        804.1279                
51428986        2046.714       -785.4561        804.1279                
51428987        2046.714       -785.4561        799.6968                
51429072        3505.658       -850.7112        854.9904                
51429073        3505.552       -850.7112        859.4203                
51429074        3509.982       -850.7112        859.5264                
51429075        3510.088       -850.7112        855.0966                
51429076        3505.658       -848.9612        854.9904                
51429077        3505.552       -848.9612        859.4203                
51429078        3509.982       -848.9612        859.5264                
51429079        3510.088       -848.9612        855.0966                
51429228        4013.205       -692.4536        839.8283                
51429229        4008.851       -693.2418         839.587                
51429230        4008.036       -689.3211        841.4838                
51429231         4012.39       -688.5329        841.7251                
51429232        4013.287       -693.7239        842.4896                
51429233        4008.934       -694.5122        842.2484                
51429234        4008.119       -690.5915        844.1451                
51429235        4012.473       -689.8032        844.3865                
$ ... 6604 like lines cut
*END
